/*---------------------------------------------------------------------------*\
| =========                 |                                                 |
| \\      /  F ield         | OpenFOAM: The Open Source CFD Toolbox           |
|  \\    /   O peration     | Version:  2012                                  |
|   \\  /    A nd           | Website:  www.openfoam.com                      |
|    \\/     M anipulation  |                                                 |
\*---------------------------------------------------------------------------*/
Build  : _269d0ffd5c-20210619 OPENFOAM=2012 patch=210618
Arch   : "LSB;label=32;scalar=64"
Exec   : sonicFoam
Date   : Mar 31 2022
Time   : 20:32:32
Host   : gabrielmarconcini-Lenovo-G50-80
PID    : 11684
I/O    : uncollated
Case   : /home/gabrielmarconcini/Documentos/TCC/PTCC/ShockTube/sim/HydroShockTube/sonicFoam/shockTube_1000
nProcs : 1
trapFpe: Floating point exception trapping enabled (FOAM_SIGFPE).
fileModificationChecking : Monitoring run-time modified files using timeStampMaster (fileModificationSkew 5, maxFileModificationPolls 20)
allowSystemOperations : Allowing user-supplied system call operations

// * * * * * * * * * * * * * * * * * * * * * * * * * * * * * * * * * * * * * //
Create time

Create mesh for time = 0


PIMPLE: Operating solver in PISO mode

Reading thermophysical properties

Selecting thermodynamics package 
{
    type            hePsiThermo;
    mixture         pureMixture;
    transport       const;
    thermo          hConst;
    equationOfState perfectGas;
    specie          specie;
    energy          sensibleInternalEnergy;
}

Reading field U

Reading/calculating face flux field phi

Creating turbulence model

Selecting turbulence model type laminar
Selecting laminar stress model Stokes
Creating field kinetic energy K

No MRF models present

No finite volume options present

Starting time loop

Time = 1e-05

Courant Number mean: 0 max: 0
diagonal:  Solving for rho, Initial residual = 0, Final residual = 0, No Iterations 0
PIMPLE: iteration 1
smoothSolver:  Solving for Ux, Initial residual = 1, Final residual = 0, No Iterations 1
smoothSolver:  Solving for e, Initial residual = 4.6153e-17, Final residual = 4.6153e-17, No Iterations 0
smoothSolver:  Solving for p, Initial residual = 0.000178178, Final residual = 6.42987e-17, No Iterations 6
diagonal:  Solving for rho, Initial residual = 0, Final residual = 0, No Iterations 0
time step continuity errors : sum local = 1.43641e-16, global = -8.8193e-17, cumulative = -8.8193e-17
ExecutionTime = 0.05 s  ClockTime = 0 s

Time = 2e-05

Courant Number mean: 0.000282763 max: 0.209968
diagonal:  Solving for rho, Initial residual = 0, Final residual = 0, No Iterations 0
PIMPLE: iteration 1
smoothSolver:  Solving for Ux, Initial residual = 0.0888773, Final residual = 1.17882e-17, No Iterations 1
smoothSolver:  Solving for e, Initial residual = 0.000671668, Final residual = 1.15502e-17, No Iterations 3
smoothSolver:  Solving for p, Initial residual = 0.00054876, Final residual = 1.31216e-16, No Iterations 6
diagonal:  Solving for rho, Initial residual = 0, Final residual = 0, No Iterations 0
time step continuity errors : sum local = 2.7781e-16, global = -1.11564e-16, cumulative = -1.99757e-16
ExecutionTime = 0.05 s  ClockTime = 0 s

Time = 3e-05

Courant Number mean: 0.000712349 max: 0.349502
diagonal:  Solving for rho, Initial residual = 0, Final residual = 0, No Iterations 0
PIMPLE: iteration 1
smoothSolver:  Solving for Ux, Initial residual = 0.0765437, Final residual = 5.43115e-18, No Iterations 1
smoothSolver:  Solving for e, Initial residual = 0.00121981, Final residual = 1.58456e-16, No Iterations 8
smoothSolver:  Solving for p, Initial residual = 0.000511208, Final residual = 1.20493e-16, No Iterations 6
diagonal:  Solving for rho, Initial residual = 0, Final residual = 0, No Iterations 0
time step continuity errors : sum local = 2.56516e-16, global = -1.91126e-16, cumulative = -3.90883e-16
ExecutionTime = 0.05 s  ClockTime = 0 s

Time = 4e-05

Courant Number mean: 0.000809623 max: 0.273389
diagonal:  Solving for rho, Initial residual = 0, Final residual = 0, No Iterations 0
PIMPLE: iteration 1
smoothSolver:  Solving for Ux, Initial residual = 0.0560522, Final residual = 2.76212e-17, No Iterations 1
smoothSolver:  Solving for e, Initial residual = 0.000778779, Final residual = 3.249e-17, No Iterations 5
smoothSolver:  Solving for p, Initial residual = 0.000387673, Final residual = 9.71095e-17, No Iterations 6
diagonal:  Solving for rho, Initial residual = 0, Final residual = 0, No Iterations 0
time step continuity errors : sum local = 2.01612e-16, global = -1.11935e-16, cumulative = -5.02819e-16
ExecutionTime = 0.05 s  ClockTime = 0 s

Time = 5e-05

Courant Number mean: 0.000977743 max: 0.25552
diagonal:  Solving for rho, Initial residual = 0, Final residual = 0, No Iterations 0
PIMPLE: iteration 1
smoothSolver:  Solving for Ux, Initial residual = 0.0440642, Final residual = 1.96008e-17, No Iterations 1
smoothSolver:  Solving for e, Initial residual = 0.000736692, Final residual = 6.31762e-16, No Iterations 5
smoothSolver:  Solving for p, Initial residual = 0.000337432, Final residual = 1.01647e-16, No Iterations 6
diagonal:  Solving for rho, Initial residual = 0, Final residual = 0, No Iterations 0
time step continuity errors : sum local = 2.18306e-16, global = -8.87123e-17, cumulative = -5.91531e-16
ExecutionTime = 0.06 s  ClockTime = 0 s

Time = 6e-05

Courant Number mean: 0.00116074 max: 0.265153
diagonal:  Solving for rho, Initial residual = 0, Final residual = 0, No Iterations 0
PIMPLE: iteration 1
smoothSolver:  Solving for Ux, Initial residual = 0.036293, Final residual = 2.27143e-17, No Iterations 1
smoothSolver:  Solving for e, Initial residual = 0.000806111, Final residual = 5.12546e-16, No Iterations 6
smoothSolver:  Solving for p, Initial residual = 0.000333997, Final residual = 1.02886e-16, No Iterations 6
diagonal:  Solving for rho, Initial residual = 0, Final residual = 0, No Iterations 0
time step continuity errors : sum local = 2.22387e-16, global = -3.75921e-17, cumulative = -6.29123e-16
ExecutionTime = 0.06 s  ClockTime = 0 s

Time = 7e-05

Courant Number mean: 0.0013555 max: 0.277931
diagonal:  Solving for rho, Initial residual = 0, Final residual = 0, No Iterations 0
PIMPLE: iteration 1
smoothSolver:  Solving for Ux, Initial residual = 0.0306439, Final residual = 1.10464e-17, No Iterations 1
smoothSolver:  Solving for e, Initial residual = 0.000808401, Final residual = 2.57871e-16, No Iterations 6
smoothSolver:  Solving for p, Initial residual = 0.000338267, Final residual = 1.60107e-16, No Iterations 6
diagonal:  Solving for rho, Initial residual = 0, Final residual = 0, No Iterations 0
time step continuity errors : sum local = 3.23885e-16, global = 7.37002e-17, cumulative = -5.55423e-16
ExecutionTime = 0.06 s  ClockTime = 0 s

Time = 8e-05

Courant Number mean: 0.00155077 max: 0.283475
diagonal:  Solving for rho, Initial residual = 0, Final residual = 0, No Iterations 0
PIMPLE: iteration 1
smoothSolver:  Solving for Ux, Initial residual = 0.0277114, Final residual = 1.1727e-17, No Iterations 1
smoothSolver:  Solving for e, Initial residual = 0.000797236, Final residual = 5.58618e-17, No Iterations 7
smoothSolver:  Solving for p, Initial residual = 0.000327829, Final residual = 2.08708e-16, No Iterations 6
diagonal:  Solving for rho, Initial residual = 0, Final residual = 0, No Iterations 0
time step continuity errors : sum local = 4.10174e-16, global = 1.2299e-16, cumulative = -4.32432e-16
ExecutionTime = 0.06 s  ClockTime = 0 s

Time = 9e-05

Courant Number mean: 0.00174942 max: 0.285018
diagonal:  Solving for rho, Initial residual = 0, Final residual = 0, No Iterations 0
PIMPLE: iteration 1
smoothSolver:  Solving for Ux, Initial residual = 0.0249428, Final residual = 1.20686e-17, No Iterations 1
smoothSolver:  Solving for e, Initial residual = 0.000856487, Final residual = 2.03976e-16, No Iterations 6
smoothSolver:  Solving for p, Initial residual = 0.000324638, Final residual = 1.55663e-16, No Iterations 6
diagonal:  Solving for rho, Initial residual = 0, Final residual = 0, No Iterations 0
time step continuity errors : sum local = 3.03531e-16, global = 1.08077e-17, cumulative = -4.21625e-16
ExecutionTime = 0.06 s  ClockTime = 0 s

Time = 0.0001

Courant Number mean: 0.00195135 max: 0.291575
diagonal:  Solving for rho, Initial residual = 0, Final residual = 0, No Iterations 0
PIMPLE: iteration 1
smoothSolver:  Solving for Ux, Initial residual = 0.0217718, Final residual = 1.3931e-17, No Iterations 1
smoothSolver:  Solving for e, Initial residual = 0.000858193, Final residual = 9.3677e-17, No Iterations 7
smoothSolver:  Solving for p, Initial residual = 0.000319823, Final residual = 9.33038e-17, No Iterations 6
diagonal:  Solving for rho, Initial residual = 0, Final residual = 0, No Iterations 0
time step continuity errors : sum local = 2.05396e-16, global = -9.07898e-17, cumulative = -5.12414e-16
ExecutionTime = 0.06 s  ClockTime = 0 s

Time = 0.00011

Courant Number mean: 0.00215627 max: 0.298032
diagonal:  Solving for rho, Initial residual = 0, Final residual = 0, No Iterations 0
PIMPLE: iteration 1
smoothSolver:  Solving for Ux, Initial residual = 0.0198098, Final residual = 1.22495e-17, No Iterations 1
smoothSolver:  Solving for e, Initial residual = 0.000938464, Final residual = 1.32324e-16, No Iterations 7
smoothSolver:  Solving for p, Initial residual = 0.000325608, Final residual = 2.01362e-16, No Iterations 6
diagonal:  Solving for rho, Initial residual = 0, Final residual = 0, No Iterations 0
time step continuity errors : sum local = 3.94692e-16, global = 5.13181e-17, cumulative = -4.61096e-16
ExecutionTime = 0.07 s  ClockTime = 0 s

Time = 0.00012

Courant Number mean: 0.00236294 max: 0.298168
diagonal:  Solving for rho, Initial residual = 0, Final residual = 0, No Iterations 0
PIMPLE: iteration 1
smoothSolver:  Solving for Ux, Initial residual = 0.0178494, Final residual = 1.62767e-17, No Iterations 1
smoothSolver:  Solving for e, Initial residual = 0.000953204, Final residual = 1.29191e-16, No Iterations 7
smoothSolver:  Solving for p, Initial residual = 0.000319156, Final residual = 1.88189e-16, No Iterations 6
diagonal:  Solving for rho, Initial residual = 0, Final residual = 0, No Iterations 0
time step continuity errors : sum local = 3.75278e-16, global = -2.16055e-16, cumulative = -6.77152e-16
ExecutionTime = 0.07 s  ClockTime = 0 s

Time = 0.00013

Courant Number mean: 0.00256821 max: 0.303128
diagonal:  Solving for rho, Initial residual = 0, Final residual = 0, No Iterations 0
PIMPLE: iteration 1
smoothSolver:  Solving for Ux, Initial residual = 0.016427, Final residual = 1.76427e-17, No Iterations 1
smoothSolver:  Solving for e, Initial residual = 0.000988772, Final residual = 2.6576e-16, No Iterations 7
smoothSolver:  Solving for p, Initial residual = 0.000323579, Final residual = 2.15959e-16, No Iterations 6
diagonal:  Solving for rho, Initial residual = 0, Final residual = 0, No Iterations 0
time step continuity errors : sum local = 4.23257e-16, global = 2.27531e-17, cumulative = -6.54399e-16
ExecutionTime = 0.07 s  ClockTime = 0 s

Time = 0.00014

Courant Number mean: 0.00277342 max: 0.301467
diagonal:  Solving for rho, Initial residual = 0, Final residual = 0, No Iterations 0
PIMPLE: iteration 1
smoothSolver:  Solving for Ux, Initial residual = 0.0150973, Final residual = 1.29412e-17, No Iterations 1
smoothSolver:  Solving for e, Initial residual = 0.000996135, Final residual = 2.14906e-16, No Iterations 7
smoothSolver:  Solving for p, Initial residual = 0.000320367, Final residual = 6.29052e-17, No Iterations 7
diagonal:  Solving for rho, Initial residual = 0, Final residual = 0, No Iterations 0
time step continuity errors : sum local = 1.46782e-16, global = -3.38823e-18, cumulative = -6.57787e-16
ExecutionTime = 0.07 s  ClockTime = 0 s

Time = 0.00015

Courant Number mean: 0.00297747 max: 0.304317
diagonal:  Solving for rho, Initial residual = 0, Final residual = 0, No Iterations 0
PIMPLE: iteration 1
smoothSolver:  Solving for Ux, Initial residual = 0.0139345, Final residual = 1.61708e-17, No Iterations 1
smoothSolver:  Solving for e, Initial residual = 0.00100346, Final residual = 4.64319e-16, No Iterations 7
smoothSolver:  Solving for p, Initial residual = 0.000324329, Final residual = 3.3204e-16, No Iterations 6
diagonal:  Solving for rho, Initial residual = 0, Final residual = 0, No Iterations 0
time step continuity errors : sum local = 6.2937e-16, global = 2.36335e-16, cumulative = -4.21452e-16
ExecutionTime = 0.07 s  ClockTime = 0 s

Time = 0.00016

Courant Number mean: 0.00318433 max: 0.301738
diagonal:  Solving for rho, Initial residual = 0, Final residual = 0, No Iterations 0
PIMPLE: iteration 1
smoothSolver:  Solving for Ux, Initial residual = 0.0129562, Final residual = 1.2652e-17, No Iterations 1
smoothSolver:  Solving for e, Initial residual = 0.0010123, Final residual = 3.35001e-16, No Iterations 7
smoothSolver:  Solving for p, Initial residual = 0.00031887, Final residual = 6.17446e-17, No Iterations 7
diagonal:  Solving for rho, Initial residual = 0, Final residual = 0, No Iterations 0
time step continuity errors : sum local = 1.44878e-16, global = 1.28604e-18, cumulative = -4.20165e-16
ExecutionTime = 0.07 s  ClockTime = 0 s

Time = 0.00017

Courant Number mean: 0.00338716 max: 0.303051
diagonal:  Solving for rho, Initial residual = 0, Final residual = 0, No Iterations 0
PIMPLE: iteration 1
smoothSolver:  Solving for Ux, Initial residual = 0.0121102, Final residual = 1.83997e-17, No Iterations 1
smoothSolver:  Solving for e, Initial residual = 0.00101434, Final residual = 4.14403e-16, No Iterations 7
smoothSolver:  Solving for p, Initial residual = 0.000322384, Final residual = 5.31992e-16, No Iterations 6
diagonal:  Solving for rho, Initial residual = 0, Final residual = 0, No Iterations 0
time step continuity errors : sum local = 9.83502e-16, global = 3.80249e-16, cumulative = -3.99168e-17
ExecutionTime = 0.08 s  ClockTime = 0 s

Time = 0.00018

Courant Number mean: 0.00359503 max: 0.301282
diagonal:  Solving for rho, Initial residual = 0, Final residual = 0, No Iterations 0
PIMPLE: iteration 1
smoothSolver:  Solving for Ux, Initial residual = 0.0113779, Final residual = 1.46202e-17, No Iterations 1
smoothSolver:  Solving for e, Initial residual = 0.00101939, Final residual = 3.73019e-16, No Iterations 7
smoothSolver:  Solving for p, Initial residual = 0.000319342, Final residual = 5.91119e-17, No Iterations 7
diagonal:  Solving for rho, Initial residual = 0, Final residual = 0, No Iterations 0
time step continuity errors : sum local = 1.41737e-16, global = -1.41712e-17, cumulative = -5.40881e-17
ExecutionTime = 0.08 s  ClockTime = 0 s

Time = 0.00019

Courant Number mean: 0.00379856 max: 0.301928
diagonal:  Solving for rho, Initial residual = 0, Final residual = 0, No Iterations 0
PIMPLE: iteration 1
smoothSolver:  Solving for Ux, Initial residual = 0.0107511, Final residual = 1.57632e-17, No Iterations 1
smoothSolver:  Solving for e, Initial residual = 0.00102017, Final residual = 4.78581e-16, No Iterations 7
smoothSolver:  Solving for p, Initial residual = 0.000315526, Final residual = 5.45453e-16, No Iterations 6
diagonal:  Solving for rho, Initial residual = 0, Final residual = 0, No Iterations 0
time step continuity errors : sum local = 1.01086e-15, global = 3.5522e-16, cumulative = 3.01132e-16
ExecutionTime = 0.08 s  ClockTime = 0 s

Time = 0.0002

Courant Number mean: 0.00400449 max: 0.299983
diagonal:  Solving for rho, Initial residual = 0, Final residual = 0, No Iterations 0
PIMPLE: iteration 1
smoothSolver:  Solving for Ux, Initial residual = 0.0101607, Final residual = 1.91242e-17, No Iterations 1
smoothSolver:  Solving for e, Initial residual = 0.00102575, Final residual = 4.37749e-16, No Iterations 7
smoothSolver:  Solving for p, Initial residual = 0.00031391, Final residual = 5.71399e-17, No Iterations 7
diagonal:  Solving for rho, Initial residual = 0, Final residual = 0, No Iterations 0
time step continuity errors : sum local = 1.38398e-16, global = -4.45169e-19, cumulative = 3.00687e-16
ExecutionTime = 0.08 s  ClockTime = 0 s

Time = 0.00021

Courant Number mean: 0.00421035 max: 0.300853
diagonal:  Solving for rho, Initial residual = 0, Final residual = 0, No Iterations 0
PIMPLE: iteration 1
smoothSolver:  Solving for Ux, Initial residual = 0.00966968, Final residual = 1.31328e-17, No Iterations 1
smoothSolver:  Solving for e, Initial residual = 0.00103217, Final residual = 4.95232e-16, No Iterations 7
smoothSolver:  Solving for p, Initial residual = 0.000314056, Final residual = 5.01865e-16, No Iterations 6
diagonal:  Solving for rho, Initial residual = 0, Final residual = 0, No Iterations 0
time step continuity errors : sum local = 9.34509e-16, global = 5.66404e-16, cumulative = 8.67091e-16
ExecutionTime = 0.08 s  ClockTime = 0 s

Time = 0.00022

Courant Number mean: 0.00441459 max: 0.298901
diagonal:  Solving for rho, Initial residual = 0, Final residual = 0, No Iterations 0
PIMPLE: iteration 1
smoothSolver:  Solving for Ux, Initial residual = 0.00917441, Final residual = 1.53259e-17, No Iterations 1
smoothSolver:  Solving for e, Initial residual = 0.00103643, Final residual = 4.43335e-16, No Iterations 7
smoothSolver:  Solving for p, Initial residual = 0.000312705, Final residual = 8.83769e-16, No Iterations 6
diagonal:  Solving for rho, Initial residual = 0, Final residual = 0, No Iterations 0
time step continuity errors : sum local = 1.6217e-15, global = 1.27571e-15, cumulative = 2.1428e-15
ExecutionTime = 0.08 s  ClockTime = 0 s

Time = 0.00023

Courant Number mean: 0.00462208 max: 0.299892
diagonal:  Solving for rho, Initial residual = 0, Final residual = 0, No Iterations 0
PIMPLE: iteration 1
smoothSolver:  Solving for Ux, Initial residual = 0.0087763, Final residual = 1.29804e-17, No Iterations 1
smoothSolver:  Solving for e, Initial residual = 0.00104744, Final residual = 5.34154e-16, No Iterations 7
smoothSolver:  Solving for p, Initial residual = 0.000309067, Final residual = 5.26014e-16, No Iterations 6
diagonal:  Solving for rho, Initial residual = 0, Final residual = 0, No Iterations 0
time step continuity errors : sum local = 9.83453e-16, global = 6.75544e-16, cumulative = 2.81834e-15
ExecutionTime = 0.09 s  ClockTime = 0 s

Time = 0.00024

Courant Number mean: 0.00482558 max: 0.297993
diagonal:  Solving for rho, Initial residual = 0, Final residual = 0, No Iterations 0
PIMPLE: iteration 1
smoothSolver:  Solving for Ux, Initial residual = 0.00835371, Final residual = 1.70644e-17, No Iterations 1
smoothSolver:  Solving for e, Initial residual = 0.00104894, Final residual = 5.04588e-16, No Iterations 7
smoothSolver:  Solving for p, Initial residual = 0.000309436, Final residual = 7.91742e-16, No Iterations 6
diagonal:  Solving for rho, Initial residual = 0, Final residual = 0, No Iterations 0
time step continuity errors : sum local = 1.4518e-15, global = 1.12811e-15, cumulative = 3.94645e-15
ExecutionTime = 0.09 s  ClockTime = 0 s

Time = 0.00025

Courant Number mean: 0.0050347 max: 0.29904
diagonal:  Solving for rho, Initial residual = 0, Final residual = 0, No Iterations 0
PIMPLE: iteration 1
smoothSolver:  Solving for Ux, Initial residual = 0.00803824, Final residual = 1.88147e-17, No Iterations 1
smoothSolver:  Solving for e, Initial residual = 0.00105135, Final residual = 5.76236e-16, No Iterations 7
smoothSolver:  Solving for p, Initial residual = 0.00030662, Final residual = 6.16014e-16, No Iterations 6
diagonal:  Solving for rho, Initial residual = 0, Final residual = 0, No Iterations 0
time step continuity errors : sum local = 1.13224e-15, global = 8.31353e-16, cumulative = 4.7778e-15
ExecutionTime = 0.09 s  ClockTime = 0 s

Time = 0.00026

Courant Number mean: 0.00523691 max: 0.297189
diagonal:  Solving for rho, Initial residual = 0, Final residual = 0, No Iterations 0
PIMPLE: iteration 1
smoothSolver:  Solving for Ux, Initial residual = 0.0076781, Final residual = 1.84513e-17, No Iterations 1
smoothSolver:  Solving for e, Initial residual = 0.00105155, Final residual = 5.13475e-16, No Iterations 7
smoothSolver:  Solving for p, Initial residual = 0.000309008, Final residual = 7.38943e-16, No Iterations 6
diagonal:  Solving for rho, Initial residual = 0, Final residual = 0, No Iterations 0
time step continuity errors : sum local = 1.35581e-15, global = 1.04009e-15, cumulative = 5.81789e-15
ExecutionTime = 0.09 s  ClockTime = 0 s

Time = 0.00027

Courant Number mean: 0.00544603 max: 0.298232
diagonal:  Solving for rho, Initial residual = 0, Final residual = 0, No Iterations 0
PIMPLE: iteration 1
smoothSolver:  Solving for Ux, Initial residual = 0.00741255, Final residual = 1.57189e-17, No Iterations 1
smoothSolver:  Solving for e, Initial residual = 0.00105335, Final residual = 5.66561e-16, No Iterations 7
smoothSolver:  Solving for p, Initial residual = 0.000305697, Final residual = 7.82197e-16, No Iterations 6
diagonal:  Solving for rho, Initial residual = 0, Final residual = 0, No Iterations 0
time step continuity errors : sum local = 1.42969e-15, global = 1.10926e-15, cumulative = 6.92715e-15
ExecutionTime = 0.09 s  ClockTime = 0 s

Time = 0.00028

Courant Number mean: 0.00564782 max: 0.296417
diagonal:  Solving for rho, Initial residual = 0, Final residual = 0, No Iterations 0
PIMPLE: iteration 1
smoothSolver:  Solving for Ux, Initial residual = 0.00709856, Final residual = 1.77194e-17, No Iterations 1
smoothSolver:  Solving for e, Initial residual = 0.0010491, Final residual = 5.49824e-16, No Iterations 7
smoothSolver:  Solving for p, Initial residual = 0.000306699, Final residual = 6.79688e-16, No Iterations 6
diagonal:  Solving for rho, Initial residual = 0, Final residual = 0, No Iterations 0
time step continuity errors : sum local = 1.25501e-15, global = 9.36117e-16, cumulative = 7.86327e-15
ExecutionTime = 0.09 s  ClockTime = 0 s

Time = 0.00029

Courant Number mean: 0.00585743 max: 0.297458
diagonal:  Solving for rho, Initial residual = 0, Final residual = 0, No Iterations 0
PIMPLE: iteration 1
smoothSolver:  Solving for Ux, Initial residual = 0.00687703, Final residual = 1.43177e-17, No Iterations 1
smoothSolver:  Solving for e, Initial residual = 0.00105012, Final residual = 5.98972e-16, No Iterations 7
smoothSolver:  Solving for p, Initial residual = 0.000303781, Final residual = 9.921e-16, No Iterations 6
diagonal:  Solving for rho, Initial residual = 0, Final residual = 0, No Iterations 0
time step continuity errors : sum local = 1.79809e-15, global = 1.46055e-15, cumulative = 9.32382e-15
ExecutionTime = 0.1 s  ClockTime = 0 s

Time = 0.0003

Courant Number mean: 0.00605829 max: 0.295686
diagonal:  Solving for rho, Initial residual = 0, Final residual = 0, No Iterations 0
PIMPLE: iteration 1
smoothSolver:  Solving for Ux, Initial residual = 0.00660203, Final residual = 1.4793e-17, No Iterations 1
smoothSolver:  Solving for e, Initial residual = 0.00104669, Final residual = 5.67519e-16, No Iterations 7
smoothSolver:  Solving for p, Initial residual = 0.000306256, Final residual = 6.31561e-16, No Iterations 6
diagonal:  Solving for rho, Initial residual = 0, Final residual = 0, No Iterations 0
time step continuity errors : sum local = 1.16345e-15, global = 8.67758e-16, cumulative = 1.01916e-14
ExecutionTime = 0.1 s  ClockTime = 0 s

Time = 0.00031

Courant Number mean: 0.00626836 max: 0.296732
diagonal:  Solving for rho, Initial residual = 0, Final residual = 0, No Iterations 0
PIMPLE: iteration 1
smoothSolver:  Solving for Ux, Initial residual = 0.0064172, Final residual = 1.18714e-17, No Iterations 1
smoothSolver:  Solving for e, Initial residual = 0.00104786, Final residual = 5.86941e-16, No Iterations 7
smoothSolver:  Solving for p, Initial residual = 0.000305552, Final residual = 6.52187e-17, No Iterations 7
diagonal:  Solving for rho, Initial residual = 0, Final residual = 0, No Iterations 0
time step continuity errors : sum local = 1.57689e-16, global = 1.57788e-17, cumulative = 1.02074e-14
ExecutionTime = 0.1 s  ClockTime = 0 s

Time = 0.00032

Courant Number mean: 0.0064701 max: 0.295856
diagonal:  Solving for rho, Initial residual = 0, Final residual = 0, No Iterations 0
PIMPLE: iteration 1
smoothSolver:  Solving for Ux, Initial residual = 0.00617069, Final residual = 1.82284e-17, No Iterations 1
smoothSolver:  Solving for e, Initial residual = 0.00104886, Final residual = 5.73245e-16, No Iterations 7
smoothSolver:  Solving for p, Initial residual = 0.000305691, Final residual = 6.08293e-16, No Iterations 6
diagonal:  Solving for rho, Initial residual = 0, Final residual = 0, No Iterations 0
time step continuity errors : sum local = 1.11995e-15, global = 8.41172e-16, cumulative = 1.10485e-14
ExecutionTime = 0.1 s  ClockTime = 0 s

Time = 0.00033

Courant Number mean: 0.00668004 max: 0.296258
diagonal:  Solving for rho, Initial residual = 0, Final residual = 0, No Iterations 0
PIMPLE: iteration 1
smoothSolver:  Solving for Ux, Initial residual = 0.00601796, Final residual = 1.69792e-17, No Iterations 1
smoothSolver:  Solving for e, Initial residual = 0.00105202, Final residual = 6.11909e-16, No Iterations 7
smoothSolver:  Solving for p, Initial residual = 0.000305485, Final residual = 6.53258e-17, No Iterations 7
diagonal:  Solving for rho, Initial residual = 0, Final residual = 0, No Iterations 0
time step continuity errors : sum local = 1.66221e-16, global = 2.99253e-18, cumulative = 1.10515e-14
ExecutionTime = 0.1 s  ClockTime = 0 s

Time = 0.00034

Courant Number mean: 0.00688107 max: 0.295227
diagonal:  Solving for rho, Initial residual = 0, Final residual = 0, No Iterations 0
PIMPLE: iteration 1
smoothSolver:  Solving for Ux, Initial residual = 0.00579673, Final residual = 1.48424e-17, No Iterations 1
smoothSolver:  Solving for e, Initial residual = 0.00105027, Final residual = 6.04879e-16, No Iterations 7
smoothSolver:  Solving for p, Initial residual = 0.000304914, Final residual = 5.78898e-16, No Iterations 6
diagonal:  Solving for rho, Initial residual = 0, Final residual = 0, No Iterations 0
time step continuity errors : sum local = 1.06573e-15, global = 7.82459e-16, cumulative = 1.1834e-14
ExecutionTime = 0.1 s  ClockTime = 0 s

Time = 0.00035

Courant Number mean: 0.00709063 max: 0.295623
diagonal:  Solving for rho, Initial residual = 0, Final residual = 0, No Iterations 0
PIMPLE: iteration 1
smoothSolver:  Solving for Ux, Initial residual = 0.00566741, Final residual = 1.80376e-17, No Iterations 1
smoothSolver:  Solving for e, Initial residual = 0.00104992, Final residual = 6.06627e-16, No Iterations 7
smoothSolver:  Solving for p, Initial residual = 0.000306701, Final residual = 6.54178e-17, No Iterations 7
diagonal:  Solving for rho, Initial residual = 0, Final residual = 0, No Iterations 0
time step continuity errors : sum local = 1.50591e-16, global = 2.65865e-17, cumulative = 1.18606e-14
ExecutionTime = 0.11 s  ClockTime = 0 s

Time = 0.00036

Courant Number mean: 0.00729134 max: 0.294904
diagonal:  Solving for rho, Initial residual = 0, Final residual = 0, No Iterations 0
PIMPLE: iteration 1
smoothSolver:  Solving for Ux, Initial residual = 0.00546786, Final residual = 1.3164e-17, No Iterations 1
smoothSolver:  Solving for e, Initial residual = 0.00104828, Final residual = 5.89464e-16, No Iterations 7
smoothSolver:  Solving for p, Initial residual = 0.000304832, Final residual = 5.67503e-16, No Iterations 6
diagonal:  Solving for rho, Initial residual = 0, Final residual = 0, No Iterations 0
time step continuity errors : sum local = 1.04098e-15, global = 7.70068e-16, cumulative = 1.26306e-14
ExecutionTime = 0.11 s  ClockTime = 0 s

Time = 0.00037

Courant Number mean: 0.00750095 max: 0.295073
diagonal:  Solving for rho, Initial residual = 0, Final residual = 0, No Iterations 0
PIMPLE: iteration 1
smoothSolver:  Solving for Ux, Initial residual = 0.00535931, Final residual = 1.60462e-17, No Iterations 1
smoothSolver:  Solving for e, Initial residual = 0.00104881, Final residual = 6.1888e-16, No Iterations 7
smoothSolver:  Solving for p, Initial residual = 0.000306184, Final residual = 6.49553e-17, No Iterations 7
diagonal:  Solving for rho, Initial residual = 0, Final residual = 0, No Iterations 0
time step continuity errors : sum local = 1.49453e-16, global = 1.75842e-17, cumulative = 1.26482e-14
ExecutionTime = 0.11 s  ClockTime = 0 s

Time = 0.00038

Courant Number mean: 0.00770126 max: 0.294659
diagonal:  Solving for rho, Initial residual = 0, Final residual = 0, No Iterations 0
PIMPLE: iteration 1
smoothSolver:  Solving for Ux, Initial residual = 0.00517749, Final residual = 1.35448e-17, No Iterations 1
smoothSolver:  Solving for e, Initial residual = 0.00104707, Final residual = 6.15171e-16, No Iterations 7
smoothSolver:  Solving for p, Initial residual = 0.000304193, Final residual = 5.51238e-16, No Iterations 6
diagonal:  Solving for rho, Initial residual = 0, Final residual = 0, No Iterations 0
time step continuity errors : sum local = 1.0202e-15, global = 7.35197e-16, cumulative = 1.33834e-14
ExecutionTime = 0.11 s  ClockTime = 0 s

Time = 0.00039

Courant Number mean: 0.00791117 max: 0.294621
diagonal:  Solving for rho, Initial residual = 0, Final residual = 0, No Iterations 0
PIMPLE: iteration 1
smoothSolver:  Solving for Ux, Initial residual = 0.00508522, Final residual = 1.79959e-17, No Iterations 1
smoothSolver:  Solving for e, Initial residual = 0.00104844, Final residual = 6.27236e-16, No Iterations 7
smoothSolver:  Solving for p, Initial residual = 0.000306911, Final residual = 6.21735e-17, No Iterations 7
diagonal:  Solving for rho, Initial residual = 0, Final residual = 0, No Iterations 0
time step continuity errors : sum local = 1.62536e-16, global = 1.74111e-17, cumulative = 1.34008e-14
ExecutionTime = 0.11 s  ClockTime = 0 s

Time = 0.0004

Courant Number mean: 0.00811136 max: 0.294457
diagonal:  Solving for rho, Initial residual = 0, Final residual = 0, No Iterations 0
PIMPLE: iteration 1
smoothSolver:  Solving for Ux, Initial residual = 0.00492443, Final residual = 1.65043e-17, No Iterations 1
smoothSolver:  Solving for e, Initial residual = 0.00104697, Final residual = 6.07718e-16, No Iterations 7
smoothSolver:  Solving for p, Initial residual = 0.000304261, Final residual = 5.45912e-16, No Iterations 6
diagonal:  Solving for rho, Initial residual = 0, Final residual = 0, No Iterations 0
time step continuity errors : sum local = 1.00873e-15, global = 7.38214e-16, cumulative = 1.4139e-14
ExecutionTime = 0.11 s  ClockTime = 0 s

Time = 0.00041

Courant Number mean: 0.00832139 max: 0.294248
diagonal:  Solving for rho, Initial residual = 0, Final residual = 0, No Iterations 0
PIMPLE: iteration 1
smoothSolver:  Solving for Ux, Initial residual = 0.00483898, Final residual = 1.60923e-17, No Iterations 1
smoothSolver:  Solving for e, Initial residual = 0.00104764, Final residual = 6.23916e-16, No Iterations 7
smoothSolver:  Solving for p, Initial residual = 0.000306698, Final residual = 6.34075e-17, No Iterations 7
diagonal:  Solving for rho, Initial residual = 0, Final residual = 0, No Iterations 0
time step continuity errors : sum local = 1.62388e-16, global = 1.50368e-17, cumulative = 1.41541e-14
ExecutionTime = 0.12 s  ClockTime = 0 s

Time = 0.00042

Courant Number mean: 0.00852135 max: 0.294292
diagonal:  Solving for rho, Initial residual = 0, Final residual = 0, No Iterations 0
PIMPLE: iteration 1
smoothSolver:  Solving for Ux, Initial residual = 0.00469815, Final residual = 1.40596e-17, No Iterations 1
smoothSolver:  Solving for e, Initial residual = 0.00104626, Final residual = 6.19912e-16, No Iterations 7
smoothSolver:  Solving for p, Initial residual = 0.00030391, Final residual = 5.48264e-16, No Iterations 6
diagonal:  Solving for rho, Initial residual = 0, Final residual = 0, No Iterations 0
time step continuity errors : sum local = 1.01652e-15, global = 7.34133e-16, cumulative = 1.48882e-14
ExecutionTime = 0.12 s  ClockTime = 0 s

Time = 0.00043

Courant Number mean: 0.00873136 max: 0.293936
diagonal:  Solving for rho, Initial residual = 0, Final residual = 0, No Iterations 0
PIMPLE: iteration 1
smoothSolver:  Solving for Ux, Initial residual = 0.00461676, Final residual = 1.92974e-17, No Iterations 1
smoothSolver:  Solving for e, Initial residual = 0.0010474, Final residual = 6.33633e-16, No Iterations 7
smoothSolver:  Solving for p, Initial residual = 0.000307196, Final residual = 6.16486e-17, No Iterations 7
diagonal:  Solving for rho, Initial residual = 0, Final residual = 0, No Iterations 0
time step continuity errors : sum local = 1.58307e-16, global = 1.78315e-17, cumulative = 1.4906e-14
ExecutionTime = 0.12 s  ClockTime = 0 s

Time = 0.00044

Courant Number mean: 0.00893216 max: 0.294215
diagonal:  Solving for rho, Initial residual = 0, Final residual = 0, No Iterations 0
PIMPLE: iteration 1
smoothSolver:  Solving for Ux, Initial residual = 0.004492, Final residual = 1.51983e-17, No Iterations 1
smoothSolver:  Solving for e, Initial residual = 0.00104663, Final residual = 6.145e-16, No Iterations 7
smoothSolver:  Solving for p, Initial residual = 0.000304042, Final residual = 5.43501e-16, No Iterations 6
diagonal:  Solving for rho, Initial residual = 0, Final residual = 0, No Iterations 0
time step continuity errors : sum local = 9.9666e-16, global = 7.1645e-16, cumulative = 1.56225e-14
ExecutionTime = 0.12 s  ClockTime = 0 s

Time = 0.00045

Courant Number mean: 0.00914181 max: 0.293801
diagonal:  Solving for rho, Initial residual = 0, Final residual = 0, No Iterations 0
PIMPLE: iteration 1
smoothSolver:  Solving for Ux, Initial residual = 0.00441425, Final residual = 1.53034e-17, No Iterations 1
smoothSolver:  Solving for e, Initial residual = 0.00104709, Final residual = 6.27313e-16, No Iterations 7
smoothSolver:  Solving for p, Initial residual = 0.000307098, Final residual = 6.04833e-17, No Iterations 7
diagonal:  Solving for rho, Initial residual = 0, Final residual = 0, No Iterations 0
time step continuity errors : sum local = 1.5571e-16, global = 2.30004e-17, cumulative = 1.56455e-14
ExecutionTime = 0.12 s  ClockTime = 0 s

Time = 0.00046

Courant Number mean: 0.00934391 max: 0.294293
diagonal:  Solving for rho, Initial residual = 0, Final residual = 0, No Iterations 0
PIMPLE: iteration 1
smoothSolver:  Solving for Ux, Initial residual = 0.00430342, Final residual = 1.87749e-17, No Iterations 1
smoothSolver:  Solving for e, Initial residual = 0.00104695, Final residual = 6.2442e-16, No Iterations 7
smoothSolver:  Solving for p, Initial residual = 0.000304038, Final residual = 5.40967e-16, No Iterations 6
diagonal:  Solving for rho, Initial residual = 0, Final residual = 0, No Iterations 0
time step continuity errors : sum local = 9.92208e-16, global = 7.21001e-16, cumulative = 1.63665e-14
ExecutionTime = 0.12 s  ClockTime = 0 s

Time = 0.00047

Courant Number mean: 0.00955309 max: 0.293805
diagonal:  Solving for rho, Initial residual = 0, Final residual = 0, No Iterations 0
PIMPLE: iteration 1
smoothSolver:  Solving for Ux, Initial residual = 0.0042284, Final residual = 1.61348e-17, No Iterations 1
smoothSolver:  Solving for e, Initial residual = 0.00104637, Final residual = 6.36162e-16, No Iterations 7
smoothSolver:  Solving for p, Initial residual = 0.00030745, Final residual = 6.01128e-17, No Iterations 7
diagonal:  Solving for rho, Initial residual = 0, Final residual = 0, No Iterations 0
time step continuity errors : sum local = 1.49923e-16, global = -1.68175e-18, cumulative = 1.63648e-14
ExecutionTime = 0.13 s  ClockTime = 0 s

Time = 0.00048

Courant Number mean: 0.00975642 max: 0.294418
diagonal:  Solving for rho, Initial residual = 0, Final residual = 0, No Iterations 0
PIMPLE: iteration 1
smoothSolver:  Solving for Ux, Initial residual = 0.00413001, Final residual = 1.87702e-17, No Iterations 1
smoothSolver:  Solving for e, Initial residual = 0.00104624, Final residual = 6.22027e-16, No Iterations 7
smoothSolver:  Solving for p, Initial residual = 0.000304317, Final residual = 5.53185e-16, No Iterations 6
diagonal:  Solving for rho, Initial residual = 0, Final residual = 0, No Iterations 0
time step continuity errors : sum local = 1.0113e-15, global = 7.22139e-16, cumulative = 1.7087e-14
ExecutionTime = 0.13 s  ClockTime = 0 s

Time = 0.00049

Courant Number mean: 0.00996486 max: 0.293829
diagonal:  Solving for rho, Initial residual = 0, Final residual = 0, No Iterations 0
PIMPLE: iteration 1
smoothSolver:  Solving for Ux, Initial residual = 0.00405688, Final residual = 1.69988e-17, No Iterations 1
smoothSolver:  Solving for e, Initial residual = 0.00104551, Final residual = 6.28991e-16, No Iterations 7
smoothSolver:  Solving for p, Initial residual = 0.000307259, Final residual = 5.92452e-17, No Iterations 7
diagonal:  Solving for rho, Initial residual = 0, Final residual = 0, No Iterations 0
time step continuity errors : sum local = 1.51654e-16, global = 8.01304e-18, cumulative = 1.7095e-14
ExecutionTime = 0.13 s  ClockTime = 0 s

Time = 0.0005

Courant Number mean: 0.0101694 max: 0.294548
diagonal:  Solving for rho, Initial residual = 0, Final residual = 0, No Iterations 0
PIMPLE: iteration 1
smoothSolver:  Solving for Ux, Initial residual = 0.00396916, Final residual = 1.6551e-17, No Iterations 1
smoothSolver:  Solving for e, Initial residual = 0.00104612, Final residual = 6.28825e-16, No Iterations 7
smoothSolver:  Solving for p, Initial residual = 0.000304047, Final residual = 5.70291e-16, No Iterations 6
diagonal:  Solving for rho, Initial residual = 0, Final residual = 0, No Iterations 0
time step continuity errors : sum local = 1.04021e-15, global = 7.53572e-16, cumulative = 1.78485e-14
ExecutionTime = 0.13 s  ClockTime = 0 s

Time = 0.00051

Courant Number mean: 0.0103769 max: 0.29384
diagonal:  Solving for rho, Initial residual = 0, Final residual = 0, No Iterations 0
PIMPLE: iteration 1
smoothSolver:  Solving for Ux, Initial residual = 0.00389841, Final residual = 1.45397e-17, No Iterations 1
smoothSolver:  Solving for e, Initial residual = 0.00104466, Final residual = 6.43127e-16, No Iterations 7
smoothSolver:  Solving for p, Initial residual = 0.000307337, Final residual = 5.7644e-17, No Iterations 7
diagonal:  Solving for rho, Initial residual = 0, Final residual = 0, No Iterations 0
time step continuity errors : sum local = 1.4102e-16, global = 1.78068e-17, cumulative = 1.78663e-14
ExecutionTime = 0.13 s  ClockTime = 0 s

Time = 0.00052

Courant Number mean: 0.0105826 max: 0.294591
diagonal:  Solving for rho, Initial residual = 0, Final residual = 0, No Iterations 0
PIMPLE: iteration 1
smoothSolver:  Solving for Ux, Initial residual = 0.00381973, Final residual = 2.0331e-17, No Iterations 1
smoothSolver:  Solving for e, Initial residual = 0.00104461, Final residual = 6.26645e-16, No Iterations 7
smoothSolver:  Solving for p, Initial residual = 0.000304074, Final residual = 6.07431e-16, No Iterations 6
diagonal:  Solving for rho, Initial residual = 0, Final residual = 0, No Iterations 0
time step continuity errors : sum local = 1.11735e-15, global = 7.86292e-16, cumulative = 1.86526e-14
ExecutionTime = 0.13 s  ClockTime = 0 s

Time = 0.00053

Courant Number mean: 0.0107892 max: 0.293788
diagonal:  Solving for rho, Initial residual = 0, Final residual = 0, No Iterations 0
PIMPLE: iteration 1
smoothSolver:  Solving for Ux, Initial residual = 0.0037514, Final residual = 1.57396e-17, No Iterations 1
smoothSolver:  Solving for e, Initial residual = 0.00104257, Final residual = 6.2068e-16, No Iterations 7
smoothSolver:  Solving for p, Initial residual = 0.000307051, Final residual = 9.20985e-16, No Iterations 6
diagonal:  Solving for rho, Initial residual = 0, Final residual = 0, No Iterations 0
time step continuity errors : sum local = 1.66266e-15, global = 1.32458e-15, cumulative = 1.99772e-14
ExecutionTime = 0.14 s  ClockTime = 0 s

Time = 0.00054

Courant Number mean: 0.0109961 max: 0.294506
diagonal:  Solving for rho, Initial residual = 0, Final residual = 0, No Iterations 0
PIMPLE: iteration 1
smoothSolver:  Solving for Ux, Initial residual = 0.00368127, Final residual = 1.79222e-17, No Iterations 1
smoothSolver:  Solving for e, Initial residual = 0.00104165, Final residual = 6.37311e-16, No Iterations 7
smoothSolver:  Solving for p, Initial residual = 0.000303598, Final residual = 6.4922e-16, No Iterations 6
diagonal:  Solving for rho, Initial residual = 0, Final residual = 0, No Iterations 0
time step continuity errors : sum local = 1.19523e-15, global = 8.49036e-16, cumulative = 2.08262e-14
ExecutionTime = 0.14 s  ClockTime = 0 s

Time = 0.00055

Courant Number mean: 0.0112017 max: 0.29365
diagonal:  Solving for rho, Initial residual = 0, Final residual = 0, No Iterations 0
PIMPLE: iteration 1
smoothSolver:  Solving for Ux, Initial residual = 0.00361527, Final residual = 1.65124e-17, No Iterations 1
smoothSolver:  Solving for e, Initial residual = 0.00103975, Final residual = 6.36327e-16, No Iterations 7
smoothSolver:  Solving for p, Initial residual = 0.000306732, Final residual = 8.37775e-16, No Iterations 6
diagonal:  Solving for rho, Initial residual = 0, Final residual = 0, No Iterations 0
time step continuity errors : sum local = 1.51197e-15, global = 1.22043e-15, cumulative = 2.20467e-14
ExecutionTime = 0.14 s  ClockTime = 0 s

Time = 0.00056

Courant Number mean: 0.0114093 max: 0.294367
diagonal:  Solving for rho, Initial residual = 0, Final residual = 0, No Iterations 0
PIMPLE: iteration 1
smoothSolver:  Solving for Ux, Initial residual = 0.00355316, Final residual = 1.45096e-17, No Iterations 1
smoothSolver:  Solving for e, Initial residual = 0.00103887, Final residual = 6.33256e-16, No Iterations 7
smoothSolver:  Solving for p, Initial residual = 0.000303467, Final residual = 7.07434e-16, No Iterations 6
diagonal:  Solving for rho, Initial residual = 0, Final residual = 0, No Iterations 0
time step continuity errors : sum local = 1.2766e-15, global = 9.52365e-16, cumulative = 2.2999e-14
ExecutionTime = 0.14 s  ClockTime = 0 s

Time = 0.00057

Courant Number mean: 0.0116141 max: 0.293473
diagonal:  Solving for rho, Initial residual = 0, Final residual = 0, No Iterations 0
PIMPLE: iteration 1
smoothSolver:  Solving for Ux, Initial residual = 0.00348944, Final residual = 1.78406e-17, No Iterations 1
smoothSolver:  Solving for e, Initial residual = 0.00103756, Final residual = 6.28238e-16, No Iterations 7
smoothSolver:  Solving for p, Initial residual = 0.00030641, Final residual = 7.80842e-16, No Iterations 6
diagonal:  Solving for rho, Initial residual = 0, Final residual = 0, No Iterations 0
time step continuity errors : sum local = 1.40762e-15, global = 1.11604e-15, cumulative = 2.41151e-14
ExecutionTime = 0.14 s  ClockTime = 0 s

Time = 0.00058

Courant Number mean: 0.0118227 max: 0.294194
diagonal:  Solving for rho, Initial residual = 0, Final residual = 0, No Iterations 0
PIMPLE: iteration 1
smoothSolver:  Solving for Ux, Initial residual = 0.00343399, Final residual = 1.64888e-17, No Iterations 1
smoothSolver:  Solving for e, Initial residual = 0.00103655, Final residual = 6.39228e-16, No Iterations 7
smoothSolver:  Solving for p, Initial residual = 0.000302936, Final residual = 7.80321e-16, No Iterations 6
diagonal:  Solving for rho, Initial residual = 0, Final residual = 0, No Iterations 0
time step continuity errors : sum local = 1.40926e-15, global = 1.08656e-15, cumulative = 2.52016e-14
ExecutionTime = 0.14 s  ClockTime = 0 s

Time = 0.00059

Courant Number mean: 0.0120266 max: 0.293266
diagonal:  Solving for rho, Initial residual = 0, Final residual = 0, No Iterations 0
PIMPLE: iteration 1
smoothSolver:  Solving for Ux, Initial residual = 0.00337236, Final residual = 1.6644e-17, No Iterations 1
smoothSolver:  Solving for e, Initial residual = 0.00103572, Final residual = 6.39098e-16, No Iterations 7
smoothSolver:  Solving for p, Initial residual = 0.000306052, Final residual = 7.29952e-16, No Iterations 6
diagonal:  Solving for rho, Initial residual = 0, Final residual = 0, No Iterations 0
time step continuity errors : sum local = 1.31928e-15, global = 1.01909e-15, cumulative = 2.62207e-14
ExecutionTime = 0.15 s  ClockTime = 0 s

Time = 0.0006

Courant Number mean: 0.0122356 max: 0.294022
diagonal:  Solving for rho, Initial residual = 0, Final residual = 0, No Iterations 0
PIMPLE: iteration 1
smoothSolver:  Solving for Ux, Initial residual = 0.00332336, Final residual = 1.6039e-17, No Iterations 1
smoothSolver:  Solving for e, Initial residual = 0.00103423, Final residual = 6.40102e-16, No Iterations 7
smoothSolver:  Solving for p, Initial residual = 0.000302742, Final residual = 8.88934e-16, No Iterations 6
diagonal:  Solving for rho, Initial residual = 0, Final residual = 0, No Iterations 0
time step continuity errors : sum local = 1.58873e-15, global = 1.26816e-15, cumulative = 2.74889e-14
ExecutionTime = 0.15 s  ClockTime = 0 s

Time = 0.00061

Courant Number mean: 0.0124388 max: 0.293062
diagonal:  Solving for rho, Initial residual = 0, Final residual = 0, No Iterations 0
PIMPLE: iteration 1
smoothSolver:  Solving for Ux, Initial residual = 0.00326307, Final residual = 1.46059e-17, No Iterations 1
smoothSolver:  Solving for e, Initial residual = 0.00103336, Final residual = 6.31686e-16, No Iterations 7
smoothSolver:  Solving for p, Initial residual = 0.000305779, Final residual = 6.89031e-16, No Iterations 6
diagonal:  Solving for rho, Initial residual = 0, Final residual = 0, No Iterations 0
time step continuity errors : sum local = 1.24714e-15, global = 9.48878e-16, cumulative = 2.84378e-14
ExecutionTime = 0.15 s  ClockTime = 0 s

Time = 0.00062

Courant Number mean: 0.0126485 max: 0.293837
diagonal:  Solving for rho, Initial residual = 0, Final residual = 0, No Iterations 0
PIMPLE: iteration 1
smoothSolver:  Solving for Ux, Initial residual = 0.00321988, Final residual = 1.55459e-17, No Iterations 1
smoothSolver:  Solving for e, Initial residual = 0.00103159, Final residual = 6.43682e-16, No Iterations 7
smoothSolver:  Solving for p, Initial residual = 0.000302866, Final residual = 5.79441e-17, No Iterations 7
diagonal:  Solving for rho, Initial residual = 0, Final residual = 0, No Iterations 0
time step continuity errors : sum local = 1.43221e-16, global = 3.78394e-18, cumulative = 2.84416e-14
ExecutionTime = 0.15 s  ClockTime = 0 s

Time = 0.00063

Courant Number mean: 0.012851 max: 0.292855
diagonal:  Solving for rho, Initial residual = 0, Final residual = 0, No Iterations 0
PIMPLE: iteration 1
smoothSolver:  Solving for Ux, Initial residual = 0.00316167, Final residual = 1.66563e-17, No Iterations 1
smoothSolver:  Solving for e, Initial residual = 0.00103203, Final residual = 6.44421e-16, No Iterations 7
smoothSolver:  Solving for p, Initial residual = 0.000305498, Final residual = 6.46855e-16, No Iterations 6
diagonal:  Solving for rho, Initial residual = 0, Final residual = 0, No Iterations 0
time step continuity errors : sum local = 1.17337e-15, global = 8.84601e-16, cumulative = 2.93262e-14
ExecutionTime = 0.15 s  ClockTime = 0 s

Time = 0.00064

Courant Number mean: 0.0130611 max: 0.293646
diagonal:  Solving for rho, Initial residual = 0, Final residual = 0, No Iterations 0
PIMPLE: iteration 1
smoothSolver:  Solving for Ux, Initial residual = 0.00312306, Final residual = 2.00978e-17, No Iterations 1
smoothSolver:  Solving for e, Initial residual = 0.00103072, Final residual = 6.40884e-16, No Iterations 7
smoothSolver:  Solving for p, Initial residual = 0.00030432, Final residual = 6.05117e-17, No Iterations 7
diagonal:  Solving for rho, Initial residual = 0, Final residual = 0, No Iterations 0
time step continuity errors : sum local = 1.5477e-16, global = 2.71059e-17, cumulative = 2.93533e-14
ExecutionTime = 0.15 s  ClockTime = 0 s

Time = 0.00065

Courant Number mean: 0.013263 max: 0.292653
diagonal:  Solving for rho, Initial residual = 0, Final residual = 0, No Iterations 0
PIMPLE: iteration 1
smoothSolver:  Solving for Ux, Initial residual = 0.00306667, Final residual = 1.66837e-17, No Iterations 1
smoothSolver:  Solving for e, Initial residual = 0.00103048, Final residual = 6.38481e-16, No Iterations 7
smoothSolver:  Solving for p, Initial residual = 0.000305354, Final residual = 6.16016e-16, No Iterations 6
diagonal:  Solving for rho, Initial residual = 0, Final residual = 0, No Iterations 0
time step continuity errors : sum local = 1.11826e-15, global = 8.42606e-16, cumulative = 3.01959e-14
ExecutionTime = 0.16 s  ClockTime = 0 s

Time = 0.00066

Courant Number mean: 0.0134734 max: 0.293477
diagonal:  Solving for rho, Initial residual = 0, Final residual = 0, No Iterations 0
PIMPLE: iteration 1
smoothSolver:  Solving for Ux, Initial residual = 0.0030329, Final residual = 1.58658e-17, No Iterations 1
smoothSolver:  Solving for e, Initial residual = 0.00102883, Final residual = 6.39128e-16, No Iterations 7
smoothSolver:  Solving for p, Initial residual = 0.000305097, Final residual = 6.32031e-17, No Iterations 7
diagonal:  Solving for rho, Initial residual = 0, Final residual = 0, No Iterations 0
time step continuity errors : sum local = 1.61621e-16, global = 3.26705e-17, cumulative = 3.02285e-14
ExecutionTime = 0.16 s  ClockTime = 0 s

Time = 0.00067

Courant Number mean: 0.0136759 max: 0.293027
diagonal:  Solving for rho, Initial residual = 0, Final residual = 0, No Iterations 0
PIMPLE: iteration 1
smoothSolver:  Solving for Ux, Initial residual = 0.0029776, Final residual = 1.47992e-17, No Iterations 1
smoothSolver:  Solving for e, Initial residual = 0.00103037, Final residual = 6.53141e-16, No Iterations 7
smoothSolver:  Solving for p, Initial residual = 0.000305458, Final residual = 5.95522e-16, No Iterations 6
diagonal:  Solving for rho, Initial residual = 0, Final residual = 0, No Iterations 0
time step continuity errors : sum local = 1.07815e-15, global = 7.91709e-16, cumulative = 3.10203e-14
ExecutionTime = 0.16 s  ClockTime = 0 s

Time = 0.00068

Courant Number mean: 0.0138864 max: 0.293419
diagonal:  Solving for rho, Initial residual = 0, Final residual = 0, No Iterations 0
PIMPLE: iteration 1
smoothSolver:  Solving for Ux, Initial residual = 0.00294932, Final residual = 1.50216e-17, No Iterations 1
smoothSolver:  Solving for e, Initial residual = 0.00102823, Final residual = 6.44182e-16, No Iterations 7
smoothSolver:  Solving for p, Initial residual = 0.000306211, Final residual = 6.52258e-17, No Iterations 7
diagonal:  Solving for rho, Initial residual = 0, Final residual = 0, No Iterations 0
time step continuity errors : sum local = 1.62066e-16, global = 1.46659e-17, cumulative = 3.10349e-14
ExecutionTime = 0.16 s  ClockTime = 0 s

Time = 0.00069

Courant Number mean: 0.0140882 max: 0.292801
diagonal:  Solving for rho, Initial residual = 0, Final residual = 0, No Iterations 0
PIMPLE: iteration 1
smoothSolver:  Solving for Ux, Initial residual = 0.00289528, Final residual = 1.50624e-17, No Iterations 1
smoothSolver:  Solving for e, Initial residual = 0.00102954, Final residual = 6.48336e-16, No Iterations 7
smoothSolver:  Solving for p, Initial residual = 0.000305719, Final residual = 5.76019e-16, No Iterations 6
diagonal:  Solving for rho, Initial residual = 0, Final residual = 0, No Iterations 0
time step continuity errors : sum local = 1.04222e-15, global = 7.61907e-16, cumulative = 3.17968e-14
ExecutionTime = 0.16 s  ClockTime = 0 s

Time = 0.0007

Courant Number mean: 0.0142986 max: 0.293237
diagonal:  Solving for rho, Initial residual = 0, Final residual = 0, No Iterations 0
PIMPLE: iteration 1
smoothSolver:  Solving for Ux, Initial residual = 0.00287065, Final residual = 1.56351e-17, No Iterations 1
smoothSolver:  Solving for e, Initial residual = 0.00102787, Final residual = 6.50048e-16, No Iterations 7
smoothSolver:  Solving for p, Initial residual = 0.000306732, Final residual = 6.56051e-17, No Iterations 7
diagonal:  Solving for rho, Initial residual = 0, Final residual = 0, No Iterations 0
time step continuity errors : sum local = 1.58925e-16, global = 1.05357e-17, cumulative = 3.18074e-14
ExecutionTime = 0.16 s  ClockTime = 0 s

Time = 0.00071

Courant Number mean: 0.0145 max: 0.292562
diagonal:  Solving for rho, Initial residual = 0, Final residual = 0, No Iterations 0
PIMPLE: iteration 1
smoothSolver:  Solving for Ux, Initial residual = 0.00281784, Final residual = 1.695e-17, No Iterations 1
smoothSolver:  Solving for e, Initial residual = 0.00102857, Final residual = 6.50282e-16, No Iterations 7
smoothSolver:  Solving for p, Initial residual = 0.000305816, Final residual = 5.62254e-16, No Iterations 6
diagonal:  Solving for rho, Initial residual = 0, Final residual = 0, No Iterations 0
time step continuity errors : sum local = 1.02701e-15, global = 7.38239e-16, cumulative = 3.25456e-14
ExecutionTime = 0.17 s  ClockTime = 0 s

Time = 0.00072

Courant Number mean: 0.0147105 max: 0.29308
diagonal:  Solving for rho, Initial residual = 0, Final residual = 0, No Iterations 0
PIMPLE: iteration 1
smoothSolver:  Solving for Ux, Initial residual = 0.00279671, Final residual = 1.74942e-17, No Iterations 1
smoothSolver:  Solving for e, Initial residual = 0.00102737, Final residual = 6.52373e-16, No Iterations 7
smoothSolver:  Solving for p, Initial residual = 0.000307715, Final residual = 6.51569e-17, No Iterations 7
diagonal:  Solving for rho, Initial residual = 0, Final residual = 0, No Iterations 0
time step continuity errors : sum local = 1.65504e-16, global = 1.98842e-17, cumulative = 3.25655e-14
ExecutionTime = 0.17 s  ClockTime = 0 s

Time = 0.00073

Courant Number mean: 0.0149115 max: 0.29259
diagonal:  Solving for rho, Initial residual = 0, Final residual = 0, No Iterations 0
PIMPLE: iteration 1
smoothSolver:  Solving for Ux, Initial residual = 0.00274502, Final residual = 1.65183e-17, No Iterations 1
smoothSolver:  Solving for e, Initial residual = 0.00102778, Final residual = 6.46118e-16, No Iterations 7
smoothSolver:  Solving for p, Initial residual = 0.000306125, Final residual = 5.53889e-16, No Iterations 6
diagonal:  Solving for rho, Initial residual = 0, Final residual = 0, No Iterations 0
time step continuity errors : sum local = 1.00912e-15, global = 7.23227e-16, cumulative = 3.32887e-14
ExecutionTime = 0.17 s  ClockTime = 0 s

Time = 0.00074

Courant Number mean: 0.0151221 max: 0.292952
diagonal:  Solving for rho, Initial residual = 0, Final residual = 0, No Iterations 0
PIMPLE: iteration 1
smoothSolver:  Solving for Ux, Initial residual = 0.002727, Final residual = 1.46083e-17, No Iterations 1
smoothSolver:  Solving for e, Initial residual = 0.00102728, Final residual = 6.51294e-16, No Iterations 7
smoothSolver:  Solving for p, Initial residual = 0.000308203, Final residual = 6.57975e-17, No Iterations 7
diagonal:  Solving for rho, Initial residual = 0, Final residual = 0, No Iterations 0
time step continuity errors : sum local = 1.63179e-16, global = 1.75594e-17, cumulative = 3.33063e-14
ExecutionTime = 0.17 s  ClockTime = 0 s

Time = 0.00075

Courant Number mean: 0.0153229 max: 0.292651
diagonal:  Solving for rho, Initial residual = 0, Final residual = 0, No Iterations 0
PIMPLE: iteration 1
smoothSolver:  Solving for Ux, Initial residual = 0.00267662, Final residual = 1.57126e-17, No Iterations 1
smoothSolver:  Solving for e, Initial residual = 0.00102745, Final residual = 6.51413e-16, No Iterations 7
smoothSolver:  Solving for p, Initial residual = 0.000306237, Final residual = 5.52772e-16, No Iterations 6
diagonal:  Solving for rho, Initial residual = 0, Final residual = 0, No Iterations 0
time step continuity errors : sum local = 1.00539e-15, global = 7.24933e-16, cumulative = 3.40312e-14
ExecutionTime = 0.17 s  ClockTime = 0 s

Time = 0.00076

Courant Number mean: 0.0155336 max: 0.29284
diagonal:  Solving for rho, Initial residual = 0, Final residual = 0, No Iterations 0
PIMPLE: iteration 1
smoothSolver:  Solving for Ux, Initial residual = 0.0026612, Final residual = 1.77372e-17, No Iterations 1
smoothSolver:  Solving for e, Initial residual = 0.00102703, Final residual = 6.5328e-16, No Iterations 7
smoothSolver:  Solving for p, Initial residual = 0.000309086, Final residual = 6.49522e-17, No Iterations 7
diagonal:  Solving for rho, Initial residual = 0, Final residual = 0, No Iterations 0
time step continuity errors : sum local = 1.60854e-16, global = 2.45832e-17, cumulative = 3.40558e-14
ExecutionTime = 0.17 s  ClockTime = 0 s

Time = 0.00077

Courant Number mean: 0.0157339 max: 0.292708
diagonal:  Solving for rho, Initial residual = 0, Final residual = 0, No Iterations 0
PIMPLE: iteration 1
smoothSolver:  Solving for Ux, Initial residual = 0.00261217, Final residual = 1.65203e-17, No Iterations 1
smoothSolver:  Solving for e, Initial residual = 0.00102681, Final residual = 6.49279e-16, No Iterations 7
smoothSolver:  Solving for p, Initial residual = 0.000306489, Final residual = 5.56266e-16, No Iterations 6
diagonal:  Solving for rho, Initial residual = 0, Final residual = 0, No Iterations 0
time step continuity errors : sum local = 1.00269e-15, global = 7.06805e-16, cumulative = 3.47626e-14
ExecutionTime = 0.18 s  ClockTime = 0 s

Time = 0.00078

Courant Number mean: 0.0159449 max: 0.292742
diagonal:  Solving for rho, Initial residual = 0, Final residual = 0, No Iterations 0
PIMPLE: iteration 1
smoothSolver:  Solving for Ux, Initial residual = 0.00259889, Final residual = 1.7748e-17, No Iterations 1
smoothSolver:  Solving for e, Initial residual = 0.00102656, Final residual = 6.55719e-16, No Iterations 7
smoothSolver:  Solving for p, Initial residual = 0.00030948, Final residual = 6.62697e-17, No Iterations 7
diagonal:  Solving for rho, Initial residual = 0, Final residual = 0, No Iterations 0
time step continuity errors : sum local = 1.62932e-16, global = 2.37424e-17, cumulative = 3.47863e-14
ExecutionTime = 0.18 s  ClockTime = 0 s

Time = 0.00079

Courant Number mean: 0.0161456 max: 0.292789
diagonal:  Solving for rho, Initial residual = 0, Final residual = 0, No Iterations 0
PIMPLE: iteration 1
smoothSolver:  Solving for Ux, Initial residual = 0.00255298, Final residual = 1.63963e-17, No Iterations 1
smoothSolver:  Solving for e, Initial residual = 0.00102636, Final residual = 6.55152e-16, No Iterations 7
smoothSolver:  Solving for p, Initial residual = 0.000306714, Final residual = 5.50971e-16, No Iterations 6
diagonal:  Solving for rho, Initial residual = 0, Final residual = 0, No Iterations 0
time step continuity errors : sum local = 9.98589e-16, global = 7.12839e-16, cumulative = 3.54992e-14
ExecutionTime = 0.18 s  ClockTime = 0 s

Time = 0.0008

Courant Number mean: 0.0163563 max: 0.292712
diagonal:  Solving for rho, Initial residual = 0, Final residual = 0, No Iterations 0
PIMPLE: iteration 1
smoothSolver:  Solving for Ux, Initial residual = 0.00253947, Final residual = 1.78775e-17, No Iterations 1
smoothSolver:  Solving for e, Initial residual = 0.0010268, Final residual = 6.64135e-16, No Iterations 7
smoothSolver:  Solving for p, Initial residual = 0.000310175, Final residual = 6.34101e-17, No Iterations 7
diagonal:  Solving for rho, Initial residual = 0, Final residual = 0, No Iterations 0
time step continuity errors : sum local = 1.54103e-16, global = 2.11455e-17, cumulative = 3.55203e-14
ExecutionTime = 0.18 s  ClockTime = 0 s

Time = 0.00081

Courant Number mean: 0.016558 max: 0.292972
diagonal:  Solving for rho, Initial residual = 0, Final residual = 0, No Iterations 0
PIMPLE: iteration 1
smoothSolver:  Solving for Ux, Initial residual = 0.00249773, Final residual = 1.81936e-17, No Iterations 1
smoothSolver:  Solving for e, Initial residual = 0.00102693, Final residual = 6.52707e-16, No Iterations 7
smoothSolver:  Solving for p, Initial residual = 0.00030717, Final residual = 5.45102e-16, No Iterations 6
diagonal:  Solving for rho, Initial residual = 0, Final residual = 0, No Iterations 0
time step continuity errors : sum local = 9.86322e-16, global = 7.01562e-16, cumulative = 3.62219e-14
ExecutionTime = 0.18 s  ClockTime = 0 s

Time = 0.00082

Courant Number mean: 0.0167683 max: 0.292822
diagonal:  Solving for rho, Initial residual = 0, Final residual = 0, No Iterations 0
PIMPLE: iteration 1
smoothSolver:  Solving for Ux, Initial residual = 0.00248225, Final residual = 1.41032e-17, No Iterations 1
smoothSolver:  Solving for e, Initial residual = 0.00102724, Final residual = 6.58196e-16, No Iterations 7
smoothSolver:  Solving for p, Initial residual = 0.000310351, Final residual = 6.46391e-17, No Iterations 7
diagonal:  Solving for rho, Initial residual = 0, Final residual = 0, No Iterations 0
time step continuity errors : sum local = 1.54647e-16, global = 1.80294e-17, cumulative = 3.62399e-14
ExecutionTime = 0.18 s  ClockTime = 0 s

Time = 0.00083

Courant Number mean: 0.0169713 max: 0.293237
diagonal:  Solving for rho, Initial residual = 0, Final residual = 0, No Iterations 0
PIMPLE: iteration 1
smoothSolver:  Solving for Ux, Initial residual = 0.00244445, Final residual = 1.44002e-17, No Iterations 1
smoothSolver:  Solving for e, Initial residual = 0.00102744, Final residual = 6.55466e-16, No Iterations 7
smoothSolver:  Solving for p, Initial residual = 0.000307404, Final residual = 5.46387e-16, No Iterations 6
diagonal:  Solving for rho, Initial residual = 0, Final residual = 0, No Iterations 0
time step continuity errors : sum local = 9.84912e-16, global = 6.88875e-16, cumulative = 3.69288e-14
ExecutionTime = 0.19 s  ClockTime = 0 s

Time = 0.00084

Courant Number mean: 0.0171808 max: 0.292981
diagonal:  Solving for rho, Initial residual = 0, Final residual = 0, No Iterations 0
PIMPLE: iteration 1
smoothSolver:  Solving for Ux, Initial residual = 0.00242719, Final residual = 1.87055e-17, No Iterations 1
smoothSolver:  Solving for e, Initial residual = 0.00102739, Final residual = 6.60023e-16, No Iterations 7
smoothSolver:  Solving for p, Initial residual = 0.000310794, Final residual = 6.33695e-17, No Iterations 7
diagonal:  Solving for rho, Initial residual = 0, Final residual = 0, No Iterations 0
time step continuity errors : sum local = 1.53707e-16, global = 1.34787e-17, cumulative = 3.69423e-14
ExecutionTime = 0.19 s  ClockTime = 0 s

Time = 0.00085

Courant Number mean: 0.0173849 max: 0.293486
diagonal:  Solving for rho, Initial residual = 0, Final residual = 0, No Iterations 0
PIMPLE: iteration 1
smoothSolver:  Solving for Ux, Initial residual = 0.00239278, Final residual = 1.61797e-17, No Iterations 1
smoothSolver:  Solving for e, Initial residual = 0.00102781, Final residual = 6.55084e-16, No Iterations 7
smoothSolver:  Solving for p, Initial residual = 0.00030766, Final residual = 5.58438e-16, No Iterations 6
diagonal:  Solving for rho, Initial residual = 0, Final residual = 0, No Iterations 0
time step continuity errors : sum local = 1.00366e-15, global = 7.13161e-16, cumulative = 3.76554e-14
ExecutionTime = 0.19 s  ClockTime = 0 s

Time = 0.00086

Courant Number mean: 0.0175937 max: 0.293108
diagonal:  Solving for rho, Initial residual = 0, Final residual = 0, No Iterations 0
PIMPLE: iteration 1
smoothSolver:  Solving for Ux, Initial residual = 0.00237391, Final residual = 1.88499e-17, No Iterations 1
smoothSolver:  Solving for e, Initial residual = 0.00102722, Final residual = 6.60343e-16, No Iterations 7
smoothSolver:  Solving for p, Initial residual = 0.000310889, Final residual = 5.95028e-17, No Iterations 7
diagonal:  Solving for rho, Initial residual = 0, Final residual = 0, No Iterations 0
time step continuity errors : sum local = 1.52421e-16, global = 9.67006e-18, cumulative = 3.76651e-14
ExecutionTime = 0.19 s  ClockTime = 0 s

Time = 0.00087

Courant Number mean: 0.017799 max: 0.293731
diagonal:  Solving for rho, Initial residual = 0, Final residual = 0, No Iterations 0
PIMPLE: iteration 1
smoothSolver:  Solving for Ux, Initial residual = 0.00234267, Final residual = 1.62471e-17, No Iterations 1
smoothSolver:  Solving for e, Initial residual = 0.00102737, Final residual = 6.59836e-16, No Iterations 7
smoothSolver:  Solving for p, Initial residual = 0.000307681, Final residual = 5.81236e-16, No Iterations 6
diagonal:  Solving for rho, Initial residual = 0, Final residual = 0, No Iterations 0
time step continuity errors : sum local = 1.0459e-15, global = 7.4828e-16, cumulative = 3.84134e-14
ExecutionTime = 0.19 s  ClockTime = 0 s

Time = 0.00088

Courant Number mean: 0.0180069 max: 0.293229
diagonal:  Solving for rho, Initial residual = 0, Final residual = 0, No Iterations 0
PIMPLE: iteration 1
smoothSolver:  Solving for Ux, Initial residual = 0.00232238, Final residual = 1.55111e-17, No Iterations 1
smoothSolver:  Solving for e, Initial residual = 0.00102675, Final residual = 6.61223e-16, No Iterations 7
smoothSolver:  Solving for p, Initial residual = 0.000311142, Final residual = 6.0351e-17, No Iterations 7
diagonal:  Solving for rho, Initial residual = 0, Final residual = 0, No Iterations 0
time step continuity errors : sum local = 1.48439e-16, global = 7.56788e-18, cumulative = 3.84209e-14
ExecutionTime = 0.19 s  ClockTime = 0 s

Time = 0.00089

Courant Number mean: 0.0182132 max: 0.293841
diagonal:  Solving for rho, Initial residual = 0, Final residual = 0, No Iterations 0
PIMPLE: iteration 1
smoothSolver:  Solving for Ux, Initial residual = 0.00229404, Final residual = 1.48275e-17, No Iterations 1
smoothSolver:  Solving for e, Initial residual = 0.00102592, Final residual = 6.57687e-16, No Iterations 7
smoothSolver:  Solving for p, Initial residual = 0.000307753, Final residual = 6.13326e-16, No Iterations 6
diagonal:  Solving for rho, Initial residual = 0, Final residual = 0, No Iterations 0
time step continuity errors : sum local = 1.10105e-15, global = 7.99128e-16, cumulative = 3.92201e-14
ExecutionTime = 0.2 s  ClockTime = 0 s

Time = 0.0009

Courant Number mean: 0.0184201 max: 0.293246
diagonal:  Solving for rho, Initial residual = 0, Final residual = 0, No Iterations 0
PIMPLE: iteration 1
smoothSolver:  Solving for Ux, Initial residual = 0.00227286, Final residual = 1.77755e-17, No Iterations 1
smoothSolver:  Solving for e, Initial residual = 0.00102546, Final residual = 6.59931e-16, No Iterations 7
smoothSolver:  Solving for p, Initial residual = 0.000310906, Final residual = 9.1267e-16, No Iterations 6
diagonal:  Solving for rho, Initial residual = 0, Final residual = 0, No Iterations 0
time step continuity errors : sum local = 1.60394e-15, global = 1.27783e-15, cumulative = 4.04979e-14
ExecutionTime = 0.2 s  ClockTime = 0 s

Time = 0.00091

Courant Number mean: 0.0186274 max: 0.29386
diagonal:  Solving for rho, Initial residual = 0, Final residual = 0, No Iterations 0
PIMPLE: iteration 1
smoothSolver:  Solving for Ux, Initial residual = 0.00224739, Final residual = 1.87766e-17, No Iterations 1
smoothSolver:  Solving for e, Initial residual = 0.00102462, Final residual = 6.62338e-16, No Iterations 7
smoothSolver:  Solving for p, Initial residual = 0.000307711, Final residual = 6.52184e-16, No Iterations 6
diagonal:  Solving for rho, Initial residual = 0, Final residual = 0, No Iterations 0
time step continuity errors : sum local = 1.17082e-15, global = 8.26753e-16, cumulative = 4.13247e-14
ExecutionTime = 0.2 s  ClockTime = 0 s

Time = 0.00092

Courant Number mean: 0.0188334 max: 0.293191
diagonal:  Solving for rho, Initial residual = 0, Final residual = 0, No Iterations 0
PIMPLE: iteration 1
smoothSolver:  Solving for Ux, Initial residual = 0.00222539, Final residual = 1.47313e-17, No Iterations 1
smoothSolver:  Solving for e, Initial residual = 0.00102413, Final residual = 6.65727e-16, No Iterations 7
smoothSolver:  Solving for p, Initial residual = 0.000310916, Final residual = 8.40313e-16, No Iterations 6
diagonal:  Solving for rho, Initial residual = 0, Final residual = 0, No Iterations 0
time step continuity errors : sum local = 1.48907e-15, global = 1.18046e-15, cumulative = 4.25051e-14
ExecutionTime = 0.2 s  ClockTime = 0 s

Time = 0.00093

Courant Number mean: 0.0190414 max: 0.293811
diagonal:  Solving for rho, Initial residual = 0, Final residual = 0, No Iterations 0
PIMPLE: iteration 1
smoothSolver:  Solving for Ux, Initial residual = 0.00220275, Final residual = 1.49973e-17, No Iterations 1
smoothSolver:  Solving for e, Initial residual = 0.00102322, Final residual = 6.61498e-16, No Iterations 7
smoothSolver:  Solving for p, Initial residual = 0.00030765, Final residual = 7.01719e-16, No Iterations 6
diagonal:  Solving for rho, Initial residual = 0, Final residual = 0, No Iterations 0
time step continuity errors : sum local = 1.24811e-15, global = 9.15416e-16, cumulative = 4.34205e-14
ExecutionTime = 0.2 s  ClockTime = 0 s

Time = 0.00094

Courant Number mean: 0.0192465 max: 0.293078
diagonal:  Solving for rho, Initial residual = 0, Final residual = 0, No Iterations 0
PIMPLE: iteration 1
smoothSolver:  Solving for Ux, Initial residual = 0.00218, Final residual = 1.83309e-17, No Iterations 1
smoothSolver:  Solving for e, Initial residual = 0.00102274, Final residual = 6.62698e-16, No Iterations 7
smoothSolver:  Solving for p, Initial residual = 0.00031064, Final residual = 7.8603e-16, No Iterations 6
diagonal:  Solving for rho, Initial residual = 0, Final residual = 0, No Iterations 0
time step continuity errors : sum local = 1.39528e-15, global = 1.07392e-15, cumulative = 4.44945e-14
ExecutionTime = 0.2 s  ClockTime = 0 s

Time = 0.00095

Courant Number mean: 0.0194553 max: 0.293718
diagonal:  Solving for rho, Initial residual = 0, Final residual = 0, No Iterations 0
PIMPLE: iteration 1
smoothSolver:  Solving for Ux, Initial residual = 0.00215991, Final residual = 1.7119e-17, No Iterations 1
smoothSolver:  Solving for e, Initial residual = 0.00102173, Final residual = 6.61547e-16, No Iterations 7
smoothSolver:  Solving for p, Initial residual = 0.00030746, Final residual = 7.76723e-16, No Iterations 6
diagonal:  Solving for rho, Initial residual = 0, Final residual = 0, No Iterations 0
time step continuity errors : sum local = 1.3775e-15, global = 1.0277e-15, cumulative = 4.55222e-14
ExecutionTime = 0.2 s  ClockTime = 0 s

Time = 0.00096

Courant Number mean: 0.0196595 max: 0.292931
diagonal:  Solving for rho, Initial residual = 0, Final residual = 0, No Iterations 0
PIMPLE: iteration 1
smoothSolver:  Solving for Ux, Initial residual = 0.00213654, Final residual = 1.67398e-17, No Iterations 1
smoothSolver:  Solving for e, Initial residual = 0.00102122, Final residual = 6.62304e-16, No Iterations 7
smoothSolver:  Solving for p, Initial residual = 0.00031064, Final residual = 7.37365e-16, No Iterations 6
diagonal:  Solving for rho, Initial residual = 0, Final residual = 0, No Iterations 0
time step continuity errors : sum local = 1.30595e-15, global = 1.00225e-15, cumulative = 4.65244e-14
ExecutionTime = 0.21 s  ClockTime = 0 s

Time = 0.00097

Courant Number mean: 0.0198688 max: 0.293619
diagonal:  Solving for rho, Initial residual = 0, Final residual = 0, No Iterations 0
PIMPLE: iteration 1
smoothSolver:  Solving for Ux, Initial residual = 0.00211887, Final residual = 1.45008e-17, No Iterations 1
smoothSolver:  Solving for e, Initial residual = 0.00102024, Final residual = 6.57098e-16, No Iterations 7
smoothSolver:  Solving for p, Initial residual = 0.000307371, Final residual = 8.77448e-16, No Iterations 6
diagonal:  Solving for rho, Initial residual = 0, Final residual = 0, No Iterations 0
time step continuity errors : sum local = 1.54874e-15, global = 1.2074e-15, cumulative = 4.77318e-14
ExecutionTime = 0.22 s  ClockTime = 0 s

Time = 0.00098

Courant Number mean: 0.0200724 max: 0.292783
diagonal:  Solving for rho, Initial residual = 0, Final residual = 0, No Iterations 0
PIMPLE: iteration 1
smoothSolver:  Solving for Ux, Initial residual = 0.00209496, Final residual = 1.91789e-17, No Iterations 1
smoothSolver:  Solving for e, Initial residual = 0.00102002, Final residual = 6.60561e-16, No Iterations 7
smoothSolver:  Solving for p, Initial residual = 0.000310397, Final residual = 6.93872e-16, No Iterations 6
diagonal:  Solving for rho, Initial residual = 0, Final residual = 0, No Iterations 0
time step continuity errors : sum local = 1.23369e-15, global = 9.34435e-16, cumulative = 4.86662e-14
ExecutionTime = 0.22 s  ClockTime = 0 s

Time = 0.00099

Courant Number mean: 0.0202822 max: 0.293498
diagonal:  Solving for rho, Initial residual = 0, Final residual = 0, No Iterations 0
PIMPLE: iteration 1
smoothSolver:  Solving for Ux, Initial residual = 0.00207959, Final residual = 1.88102e-17, No Iterations 1
smoothSolver:  Solving for e, Initial residual = 0.001019, Final residual = 6.58408e-16, No Iterations 7
smoothSolver:  Solving for p, Initial residual = 0.000307568, Final residual = 6.0096e-17, No Iterations 7
diagonal:  Solving for rho, Initial residual = 0, Final residual = 0, No Iterations 0
time step continuity errors : sum local = 1.44433e-16, global = 1.29594e-17, cumulative = 4.86792e-14
ExecutionTime = 0.22 s  ClockTime = 0 s

Time = 0.001

Courant Number mean: 0.0204851 max: 0.292624
diagonal:  Solving for rho, Initial residual = 0, Final residual = 0, No Iterations 0
PIMPLE: iteration 1
smoothSolver:  Solving for Ux, Initial residual = 0.00205529, Final residual = 1.9462e-17, No Iterations 1
smoothSolver:  Solving for e, Initial residual = 0.00101884, Final residual = 6.61937e-16, No Iterations 7
smoothSolver:  Solving for p, Initial residual = 0.000310432, Final residual = 6.57863e-16, No Iterations 6
diagonal:  Solving for rho, Initial residual = 0, Final residual = 0, No Iterations 0
time step continuity errors : sum local = 1.17099e-15, global = 8.84007e-16, cumulative = 4.95632e-14
ExecutionTime = 0.22 s  ClockTime = 0 s

    functionObjects::mag mag(U) writing field: mag(U)
Time = 0.00101

Courant Number mean: 0.0206953 max: 0.293361
diagonal:  Solving for rho, Initial residual = 0, Final residual = 0, No Iterations 0
PIMPLE: iteration 1
smoothSolver:  Solving for Ux, Initial residual = 0.00204192, Final residual = 1.98731e-17, No Iterations 1
smoothSolver:  Solving for e, Initial residual = 0.00101777, Final residual = 6.58925e-16, No Iterations 7
smoothSolver:  Solving for p, Initial residual = 0.000309064, Final residual = 6.23879e-17, No Iterations 7
diagonal:  Solving for rho, Initial residual = 0, Final residual = 0, No Iterations 0
time step continuity errors : sum local = 1.5984e-16, global = 1.51605e-17, cumulative = 4.95784e-14
ExecutionTime = 0.22 s  ClockTime = 0 s

Time = 0.00102

Courant Number mean: 0.0208976 max: 0.292463
diagonal:  Solving for rho, Initial residual = 0, Final residual = 0, No Iterations 0
PIMPLE: iteration 1
smoothSolver:  Solving for Ux, Initial residual = 0.00201735, Final residual = 1.66633e-17, No Iterations 1
smoothSolver:  Solving for e, Initial residual = 0.00101774, Final residual = 6.58046e-16, No Iterations 7
smoothSolver:  Solving for p, Initial residual = 0.000310297, Final residual = 6.2814e-16, No Iterations 6
diagonal:  Solving for rho, Initial residual = 0, Final residual = 0, No Iterations 0
time step continuity errors : sum local = 1.11967e-15, global = 8.26704e-16, cumulative = 5.04051e-14
ExecutionTime = 0.22 s  ClockTime = 0 s

Time = 0.00103

Courant Number mean: 0.0211081 max: 0.293239
diagonal:  Solving for rho, Initial residual = 0, Final residual = 0, No Iterations 0
PIMPLE: iteration 1
smoothSolver:  Solving for Ux, Initial residual = 0.00200593, Final residual = 1.49475e-17, No Iterations 1
smoothSolver:  Solving for e, Initial residual = 0.00101665, Final residual = 6.6053e-16, No Iterations 7
smoothSolver:  Solving for p, Initial residual = 0.000310126, Final residual = 6.59209e-17, No Iterations 7
diagonal:  Solving for rho, Initial residual = 0, Final residual = 0, No Iterations 0
time step continuity errors : sum local = 1.57837e-16, global = 1.70154e-17, cumulative = 5.04221e-14
ExecutionTime = 0.23 s  ClockTime = 0 s

Time = 0.00104

Courant Number mean: 0.0213108 max: 0.292848
diagonal:  Solving for rho, Initial residual = 0, Final residual = 0, No Iterations 0
PIMPLE: iteration 1
smoothSolver:  Solving for Ux, Initial residual = 0.00198086, Final residual = 1.8199e-17, No Iterations 1
smoothSolver:  Solving for e, Initial residual = 0.00101821, Final residual = 6.62734e-16, No Iterations 7
smoothSolver:  Solving for p, Initial residual = 0.000310594, Final residual = 6.05203e-16, No Iterations 6
diagonal:  Solving for rho, Initial residual = 0, Final residual = 0, No Iterations 0
time step continuity errors : sum local = 1.07578e-15, global = 7.90917e-16, cumulative = 5.1213e-14
ExecutionTime = 0.23 s  ClockTime = 0 s

Time = 0.00105

Courant Number mean: 0.0215215 max: 0.293209
diagonal:  Solving for rho, Initial residual = 0, Final residual = 0, No Iterations 0
PIMPLE: iteration 1
smoothSolver:  Solving for Ux, Initial residual = 0.00197198, Final residual = 1.76959e-17, No Iterations 1
smoothSolver:  Solving for e, Initial residual = 0.00101579, Final residual = 6.5921e-16, No Iterations 7
smoothSolver:  Solving for p, Initial residual = 0.00031115, Final residual = 6.60341e-17, No Iterations 7
diagonal:  Solving for rho, Initial residual = 0, Final residual = 0, No Iterations 0
time step continuity errors : sum local = 1.49973e-16, global = 2.30004e-17, cumulative = 5.1236e-14
ExecutionTime = 0.23 s  ClockTime = 0 s

Time = 0.00106

Courant Number mean: 0.0217234 max: 0.292628
diagonal:  Solving for rho, Initial residual = 0, Final residual = 0, No Iterations 0
PIMPLE: iteration 1
smoothSolver:  Solving for Ux, Initial residual = 0.00194655, Final residual = 1.98614e-17, No Iterations 1
smoothSolver:  Solving for e, Initial residual = 0.00101744, Final residual = 6.60016e-16, No Iterations 7
smoothSolver:  Solving for p, Initial residual = 0.000310722, Final residual = 5.87866e-16, No Iterations 6
diagonal:  Solving for rho, Initial residual = 0, Final residual = 0, No Iterations 0
time step continuity errors : sum local = 1.04029e-15, global = 7.55328e-16, cumulative = 5.19913e-14
ExecutionTime = 0.23 s  ClockTime = 0 s

Time = 0.00107

Courant Number mean: 0.0219341 max: 0.293062
diagonal:  Solving for rho, Initial residual = 0, Final residual = 0, No Iterations 0
PIMPLE: iteration 1
smoothSolver:  Solving for Ux, Initial residual = 0.00193935, Final residual = 1.61223e-17, No Iterations 1
smoothSolver:  Solving for e, Initial residual = 0.00101579, Final residual = 6.62416e-16, No Iterations 7
smoothSolver:  Solving for p, Initial residual = 0.000311921, Final residual = 6.61825e-17, No Iterations 7
diagonal:  Solving for rho, Initial residual = 0, Final residual = 0, No Iterations 0
time step continuity errors : sum local = 1.60929e-16, global = 2.43112e-17, cumulative = 5.20156e-14
ExecutionTime = 0.23 s  ClockTime = 0 s

Time = 0.00108

Courant Number mean: 0.0221356 max: 0.292412
diagonal:  Solving for rho, Initial residual = 0, Final residual = 0, No Iterations 0
PIMPLE: iteration 1
smoothSolver:  Solving for Ux, Initial residual = 0.00191353, Final residual = 1.49729e-17, No Iterations 1
smoothSolver:  Solving for e, Initial residual = 0.001017, Final residual = 6.67198e-16, No Iterations 7
smoothSolver:  Solving for p, Initial residual = 0.000311068, Final residual = 5.74884e-16, No Iterations 6
diagonal:  Solving for rho, Initial residual = 0, Final residual = 0, No Iterations 0
time step continuity errors : sum local = 1.01897e-15, global = 7.25255e-16, cumulative = 5.27409e-14
ExecutionTime = 0.23 s  ClockTime = 0 s

Time = 0.00109

Courant Number mean: 0.0223464 max: 0.292928
diagonal:  Solving for rho, Initial residual = 0, Final residual = 0, No Iterations 0
PIMPLE: iteration 1
smoothSolver:  Solving for Ux, Initial residual = 0.00190796, Final residual = 1.51171e-17, No Iterations 1
smoothSolver:  Solving for e, Initial residual = 0.00101587, Final residual = 6.62526e-16, No Iterations 7
smoothSolver:  Solving for p, Initial residual = 0.000312817, Final residual = 6.63217e-17, No Iterations 7
[...]
smoothSolver:  Solving for e, Initial residual = 0.000863006, Final residual = 6.46482e-16, No Iterations 7
smoothSolver:  Solving for p, Initial residual = 0.00052389, Final residual = 9.60852e-17, No Iterations 7
diagonal:  Solving for rho, Initial residual = 0, Final residual = 0, No Iterations 0
time step continuity errors : sum local = 1.56618e-16, global = 8.90438e-19, cumulative = 3.71752e-13
ExecutionTime = 1.78 s  ClockTime = 2 s

Time = 0.00974

Courant Number mean: 0.201102 max: 0.292359
diagonal:  Solving for rho, Initial residual = 0, Final residual = 0, No Iterations 0
PIMPLE: iteration 1
smoothSolver:  Solving for Ux, Initial residual = 0.000500933, Final residual = 4.75931e-17, No Iterations 1
smoothSolver:  Solving for e, Initial residual = 0.000832212, Final residual = 6.48574e-16, No Iterations 7
smoothSolver:  Solving for p, Initial residual = 0.000495012, Final residual = 1.18363e-16, No Iterations 7
diagonal:  Solving for rho, Initial residual = 0, Final residual = 0, No Iterations 0
time step continuity errors : sum local = 1.75034e-16, global = 1.92943e-17, cumulative = 3.71771e-13
ExecutionTime = 1.78 s  ClockTime = 2 s

Time = 0.00975

Courant Number mean: 0.201234 max: 0.291958
diagonal:  Solving for rho, Initial residual = 0, Final residual = 0, No Iterations 0
PIMPLE: iteration 1
smoothSolver:  Solving for Ux, Initial residual = 0.000461951, Final residual = 4.41263e-17, No Iterations 1
smoothSolver:  Solving for e, Initial residual = 0.000791171, Final residual = 6.43339e-16, No Iterations 7
smoothSolver:  Solving for p, Initial residual = 0.000456099, Final residual = 7.61706e-16, No Iterations 6
diagonal:  Solving for rho, Initial residual = 0, Final residual = 0, No Iterations 0
time step continuity errors : sum local = 7.50677e-16, global = 4.65685e-16, cumulative = 3.72237e-13
ExecutionTime = 1.78 s  ClockTime = 2 s

Time = 0.00976

Courant Number mean: 0.201352 max: 0.292978
diagonal:  Solving for rho, Initial residual = 0, Final residual = 0, No Iterations 0
PIMPLE: iteration 1
smoothSolver:  Solving for Ux, Initial residual = 0.000423246, Final residual = 4.76718e-17, No Iterations 1
smoothSolver:  Solving for e, Initial residual = 0.00076438, Final residual = 6.47697e-16, No Iterations 7
smoothSolver:  Solving for p, Initial residual = 0.00045015, Final residual = 6.23718e-16, No Iterations 6
diagonal:  Solving for rho, Initial residual = 0, Final residual = 0, No Iterations 0
time step continuity errors : sum local = 6.27753e-16, global = 3.41538e-16, cumulative = 3.72578e-13
ExecutionTime = 1.78 s  ClockTime = 2 s

Time = 0.00977

Courant Number mean: 0.201434 max: 0.302707
diagonal:  Solving for rho, Initial residual = 0, Final residual = 0, No Iterations 0
PIMPLE: iteration 1
smoothSolver:  Solving for Ux, Initial residual = 0.000382543, Final residual = 4.60661e-17, No Iterations 1
smoothSolver:  Solving for e, Initial residual = 0.000707611, Final residual = 7.01219e-16, No Iterations 7
smoothSolver:  Solving for p, Initial residual = 0.00040888, Final residual = 3.4516e-16, No Iterations 6
diagonal:  Solving for rho, Initial residual = 0, Final residual = 0, No Iterations 0
time step continuity errors : sum local = 3.78109e-16, global = -2.70219e-16, cumulative = 3.72308e-13
ExecutionTime = 1.79 s  ClockTime = 2 s

Time = 0.00978

Courant Number mean: 0.201492 max: 0.303485
diagonal:  Solving for rho, Initial residual = 0, Final residual = 0, No Iterations 0
PIMPLE: iteration 1
smoothSolver:  Solving for Ux, Initial residual = 0.000365251, Final residual = 4.64971e-17, No Iterations 1
smoothSolver:  Solving for e, Initial residual = 0.000671937, Final residual = 6.45178e-16, No Iterations 7
smoothSolver:  Solving for p, Initial residual = 0.000372612, Final residual = 8.67656e-16, No Iterations 6
diagonal:  Solving for rho, Initial residual = 0, Final residual = 0, No Iterations 0
time step continuity errors : sum local = 8.36908e-16, global = 2.90453e-16, cumulative = 3.72598e-13
ExecutionTime = 1.79 s  ClockTime = 2 s

Time = 0.00979

Courant Number mean: 0.201544 max: 0.298971
diagonal:  Solving for rho, Initial residual = 0, Final residual = 0, No Iterations 0
PIMPLE: iteration 1
smoothSolver:  Solving for Ux, Initial residual = 0.000358359, Final residual = 4.7035e-17, No Iterations 1
smoothSolver:  Solving for e, Initial residual = 0.000647919, Final residual = 6.50043e-16, No Iterations 7
smoothSolver:  Solving for p, Initial residual = 0.00036003, Final residual = 3.587e-16, No Iterations 6
diagonal:  Solving for rho, Initial residual = 0, Final residual = 0, No Iterations 0
time step continuity errors : sum local = 3.85842e-16, global = -2.07921e-18, cumulative = 3.72596e-13
ExecutionTime = 1.79 s  ClockTime = 2 s

Time = 0.0098

Courant Number mean: 0.201597 max: 0.296654
diagonal:  Solving for rho, Initial residual = 0, Final residual = 0, No Iterations 0
PIMPLE: iteration 1
smoothSolver:  Solving for Ux, Initial residual = 0.000354209, Final residual = 4.83303e-17, No Iterations 1
smoothSolver:  Solving for e, Initial residual = 0.00065491, Final residual = 6.59202e-16, No Iterations 7
smoothSolver:  Solving for p, Initial residual = 0.000357037, Final residual = 3.57547e-16, No Iterations 6
diagonal:  Solving for rho, Initial residual = 0, Final residual = 0, No Iterations 0
time step continuity errors : sum local = 3.91642e-16, global = 2.60434e-17, cumulative = 3.72622e-13
ExecutionTime = 1.79 s  ClockTime = 2 s

Time = 0.00981

Courant Number mean: 0.201649 max: 0.295048
diagonal:  Solving for rho, Initial residual = 0, Final residual = 0, No Iterations 0
PIMPLE: iteration 1
smoothSolver:  Solving for Ux, Initial residual = 0.000352078, Final residual = 4.53898e-17, No Iterations 1
smoothSolver:  Solving for e, Initial residual = 0.000644555, Final residual = 6.44538e-16, No Iterations 7
smoothSolver:  Solving for p, Initial residual = 0.000354093, Final residual = 2.3577e-16, No Iterations 6
diagonal:  Solving for rho, Initial residual = 0, Final residual = 0, No Iterations 0
time step continuity errors : sum local = 2.7929e-16, global = -4.53599e-17, cumulative = 3.72577e-13
ExecutionTime = 1.79 s  ClockTime = 2 s

Time = 0.00982

Courant Number mean: 0.201705 max: 0.293211
diagonal:  Solving for rho, Initial residual = 0, Final residual = 0, No Iterations 0
PIMPLE: iteration 1
smoothSolver:  Solving for Ux, Initial residual = 0.000349895, Final residual = 4.50778e-17, No Iterations 1
smoothSolver:  Solving for e, Initial residual = 0.000641853, Final residual = 6.43412e-16, No Iterations 7
smoothSolver:  Solving for p, Initial residual = 0.000352606, Final residual = 1.9793e-16, No Iterations 6
diagonal:  Solving for rho, Initial residual = 0, Final residual = 0, No Iterations 0
time step continuity errors : sum local = 2.3238e-16, global = -6.91395e-17, cumulative = 3.72508e-13
ExecutionTime = 1.79 s  ClockTime = 2 s

Time = 0.00983

Courant Number mean: 0.201762 max: 0.293005
diagonal:  Solving for rho, Initial residual = 0, Final residual = 0, No Iterations 0
PIMPLE: iteration 1
smoothSolver:  Solving for Ux, Initial residual = 0.000348511, Final residual = 4.58452e-17, No Iterations 1
smoothSolver:  Solving for e, Initial residual = 0.000640805, Final residual = 6.45235e-16, No Iterations 7
smoothSolver:  Solving for p, Initial residual = 0.000352057, Final residual = 1.913e-16, No Iterations 6
diagonal:  Solving for rho, Initial residual = 0, Final residual = 0, No Iterations 0
time step continuity errors : sum local = 2.36575e-16, global = -6.14224e-17, cumulative = 3.72446e-13
ExecutionTime = 1.8 s  ClockTime = 2 s

Time = 0.00984

Courant Number mean: 0.201819 max: 0.292249
diagonal:  Solving for rho, Initial residual = 0, Final residual = 0, No Iterations 0
PIMPLE: iteration 1
smoothSolver:  Solving for Ux, Initial residual = 0.000347391, Final residual = 4.9964e-17, No Iterations 1
smoothSolver:  Solving for e, Initial residual = 0.000638392, Final residual = 6.50647e-16, No Iterations 7
smoothSolver:  Solving for p, Initial residual = 0.000351351, Final residual = 1.58177e-16, No Iterations 6
diagonal:  Solving for rho, Initial residual = 0, Final residual = 0, No Iterations 0
time step continuity errors : sum local = 2.05696e-16, global = -7.13398e-17, cumulative = 3.72375e-13
ExecutionTime = 1.8 s  ClockTime = 2 s

Time = 0.00985

Courant Number mean: 0.201876 max: 0.291535
diagonal:  Solving for rho, Initial residual = 0, Final residual = 0, No Iterations 0
PIMPLE: iteration 1
smoothSolver:  Solving for Ux, Initial residual = 0.000346434, Final residual = 4.847e-17, No Iterations 1
smoothSolver:  Solving for e, Initial residual = 0.000636902, Final residual = 6.47529e-16, No Iterations 7
smoothSolver:  Solving for p, Initial residual = 0.00035062, Final residual = 1.54435e-16, No Iterations 6
diagonal:  Solving for rho, Initial residual = 0, Final residual = 0, No Iterations 0
time step continuity errors : sum local = 2.0761e-16, global = -7.54134e-17, cumulative = 3.723e-13
ExecutionTime = 1.8 s  ClockTime = 2 s

Time = 0.00986

Courant Number mean: 0.201933 max: 0.291471
diagonal:  Solving for rho, Initial residual = 0, Final residual = 0, No Iterations 0
PIMPLE: iteration 1
smoothSolver:  Solving for Ux, Initial residual = 0.000345873, Final residual = 4.68024e-17, No Iterations 1
smoothSolver:  Solving for e, Initial residual = 0.00063645, Final residual = 6.48237e-16, No Iterations 7
smoothSolver:  Solving for p, Initial residual = 0.000350822, Final residual = 1.6187e-16, No Iterations 6
diagonal:  Solving for rho, Initial residual = 0, Final residual = 0, No Iterations 0
time step continuity errors : sum local = 2.05361e-16, global = -7.71095e-17, cumulative = 3.72223e-13
ExecutionTime = 1.8 s  ClockTime = 2 s

Time = 0.00987

Courant Number mean: 0.201991 max: 0.291185
diagonal:  Solving for rho, Initial residual = 0, Final residual = 0, No Iterations 0
PIMPLE: iteration 1
smoothSolver:  Solving for Ux, Initial residual = 0.000345339, Final residual = 4.60152e-17, No Iterations 1
smoothSolver:  Solving for e, Initial residual = 0.000635755, Final residual = 6.43754e-16, No Iterations 7
smoothSolver:  Solving for p, Initial residual = 0.000350435, Final residual = 1.51137e-16, No Iterations 6
diagonal:  Solving for rho, Initial residual = 0, Final residual = 0, No Iterations 0
time step continuity errors : sum local = 1.95082e-16, global = -7.91035e-17, cumulative = 3.72143e-13
ExecutionTime = 1.8 s  ClockTime = 2 s

Time = 0.00988

Courant Number mean: 0.202049 max: 0.290913
diagonal:  Solving for rho, Initial residual = 0, Final residual = 0, No Iterations 0
PIMPLE: iteration 1
smoothSolver:  Solving for Ux, Initial residual = 0.00034493, Final residual = 4.52639e-17, No Iterations 1
smoothSolver:  Solving for e, Initial residual = 0.000635017, Final residual = 6.45577e-16, No Iterations 7
smoothSolver:  Solving for p, Initial residual = 0.000350098, Final residual = 1.53162e-16, No Iterations 6
diagonal:  Solving for rho, Initial residual = 0, Final residual = 0, No Iterations 0
time step continuity errors : sum local = 1.97788e-16, global = -7.14813e-17, cumulative = 3.72072e-13
ExecutionTime = 1.8 s  ClockTime = 2 s

Time = 0.00989

Courant Number mean: 0.202106 max: 0.290741
diagonal:  Solving for rho, Initial residual = 0, Final residual = 0, No Iterations 0
PIMPLE: iteration 1
smoothSolver:  Solving for Ux, Initial residual = 0.000344674, Final residual = 4.67701e-17, No Iterations 1
smoothSolver:  Solving for e, Initial residual = 0.000635023, Final residual = 6.45063e-16, No Iterations 7
smoothSolver:  Solving for p, Initial residual = 0.000349885, Final residual = 1.5215e-16, No Iterations 6
diagonal:  Solving for rho, Initial residual = 0, Final residual = 0, No Iterations 0
time step continuity errors : sum local = 1.96231e-16, global = -7.18885e-17, cumulative = 3.72e-13
ExecutionTime = 1.8 s  ClockTime = 2 s

Time = 0.0099

Courant Number mean: 0.202164 max: 0.290695
diagonal:  Solving for rho, Initial residual = 0, Final residual = 0, No Iterations 0
PIMPLE: iteration 1
smoothSolver:  Solving for Ux, Initial residual = 0.000344566, Final residual = 4.69852e-17, No Iterations 1
smoothSolver:  Solving for e, Initial residual = 0.000634806, Final residual = 6.48667e-16, No Iterations 7
smoothSolver:  Solving for p, Initial residual = 0.000349915, Final residual = 1.47528e-16, No Iterations 6
diagonal:  Solving for rho, Initial residual = 0, Final residual = 0, No Iterations 0
time step continuity errors : sum local = 1.88921e-16, global = -7.60644e-17, cumulative = 3.71924e-13
ExecutionTime = 1.81 s  ClockTime = 2 s

Time = 0.00991

Courant Number mean: 0.202222 max: 0.290563
diagonal:  Solving for rho, Initial residual = 0, Final residual = 0, No Iterations 0
PIMPLE: iteration 1
smoothSolver:  Solving for Ux, Initial residual = 0.000344462, Final residual = 4.58971e-17, No Iterations 1
smoothSolver:  Solving for e, Initial residual = 0.000634334, Final residual = 6.46548e-16, No Iterations 7
smoothSolver:  Solving for p, Initial residual = 0.000349996, Final residual = 1.48294e-16, No Iterations 6
diagonal:  Solving for rho, Initial residual = 0, Final residual = 0, No Iterations 0
time step continuity errors : sum local = 1.96587e-16, global = -8.17292e-17, cumulative = 3.71842e-13
ExecutionTime = 1.81 s  ClockTime = 2 s

Time = 0.00992

Courant Number mean: 0.20228 max: 0.290439
diagonal:  Solving for rho, Initial residual = 0, Final residual = 0, No Iterations 0
PIMPLE: iteration 1
smoothSolver:  Solving for Ux, Initial residual = 0.000344418, Final residual = 4.57972e-17, No Iterations 1
smoothSolver:  Solving for e, Initial residual = 0.000634257, Final residual = 6.44403e-16, No Iterations 7
smoothSolver:  Solving for p, Initial residual = 0.000350005, Final residual = 1.46362e-16, No Iterations 6
diagonal:  Solving for rho, Initial residual = 0, Final residual = 0, No Iterations 0
time step continuity errors : sum local = 2.01377e-16, global = -7.45989e-17, cumulative = 3.71768e-13
ExecutionTime = 1.81 s  ClockTime = 2 s

Time = 0.00993

Courant Number mean: 0.202337 max: 0.290368
diagonal:  Solving for rho, Initial residual = 0, Final residual = 0, No Iterations 0
PIMPLE: iteration 1
smoothSolver:  Solving for Ux, Initial residual = 0.000344442, Final residual = 4.74376e-17, No Iterations 1
smoothSolver:  Solving for e, Initial residual = 0.000634067, Final residual = 6.46345e-16, No Iterations 7
smoothSolver:  Solving for p, Initial residual = 0.000349976, Final residual = 1.47433e-16, No Iterations 6
diagonal:  Solving for rho, Initial residual = 0, Final residual = 0, No Iterations 0
time step continuity errors : sum local = 1.88906e-16, global = -7.75864e-17, cumulative = 3.7169e-13
ExecutionTime = 1.81 s  ClockTime = 2 s

Time = 0.00994

Courant Number mean: 0.202395 max: 0.290348
diagonal:  Solving for rho, Initial residual = 0, Final residual = 0, No Iterations 0
PIMPLE: iteration 1
smoothSolver:  Solving for Ux, Initial residual = 0.00034454, Final residual = 4.56423e-17, No Iterations 1
smoothSolver:  Solving for e, Initial residual = 0.000633941, Final residual = 6.4529e-16, No Iterations 7
smoothSolver:  Solving for p, Initial residual = 0.000350048, Final residual = 1.42717e-16, No Iterations 6
diagonal:  Solving for rho, Initial residual = 0, Final residual = 0, No Iterations 0
time step continuity errors : sum local = 1.9072e-16, global = -8.55364e-17, cumulative = 3.71605e-13
ExecutionTime = 1.81 s  ClockTime = 2 s

Time = 0.00995

Courant Number mean: 0.202453 max: 0.290284
diagonal:  Solving for rho, Initial residual = 0, Final residual = 0, No Iterations 0
PIMPLE: iteration 1
smoothSolver:  Solving for Ux, Initial residual = 0.000344649, Final residual = 4.75907e-17, No Iterations 1
smoothSolver:  Solving for e, Initial residual = 0.000633873, Final residual = 6.47082e-16, No Iterations 7
smoothSolver:  Solving for p, Initial residual = 0.000350136, Final residual = 1.38852e-16, No Iterations 6
diagonal:  Solving for rho, Initial residual = 0, Final residual = 0, No Iterations 0
time step continuity errors : sum local = 1.91046e-16, global = -7.43344e-17, cumulative = 3.7153e-13
ExecutionTime = 1.82 s  ClockTime = 2 s

Time = 0.00996

Courant Number mean: 0.202511 max: 0.290221
diagonal:  Solving for rho, Initial residual = 0, Final residual = 0, No Iterations 0
PIMPLE: iteration 1
smoothSolver:  Solving for Ux, Initial residual = 0.000344771, Final residual = 4.50571e-17, No Iterations 1
smoothSolver:  Solving for e, Initial residual = 0.000633883, Final residual = 6.44857e-16, No Iterations 7
smoothSolver:  Solving for p, Initial residual = 0.000350243, Final residual = 1.40856e-16, No Iterations 6
diagonal:  Solving for rho, Initial residual = 0, Final residual = 0, No Iterations 0
time step continuity errors : sum local = 1.90181e-16, global = -6.92832e-17, cumulative = 3.71461e-13
ExecutionTime = 1.82 s  ClockTime = 2 s

Time = 0.00997

Courant Number mean: 0.202569 max: 0.290165
diagonal:  Solving for rho, Initial residual = 0, Final residual = 0, No Iterations 0
PIMPLE: iteration 1
smoothSolver:  Solving for Ux, Initial residual = 0.00034491, Final residual = 4.67641e-17, No Iterations 1
smoothSolver:  Solving for e, Initial residual = 0.000633815, Final residual = 6.4657e-16, No Iterations 7
smoothSolver:  Solving for p, Initial residual = 0.000350359, Final residual = 1.41823e-16, No Iterations 6
diagonal:  Solving for rho, Initial residual = 0, Final residual = 0, No Iterations 0
time step continuity errors : sum local = 1.86834e-16, global = -7.9618e-17, cumulative = 3.71381e-13
ExecutionTime = 1.82 s  ClockTime = 2 s

Time = 0.00998

Courant Number mean: 0.202627 max: 0.290157
diagonal:  Solving for rho, Initial residual = 0, Final residual = 0, No Iterations 0
PIMPLE: iteration 1
smoothSolver:  Solving for Ux, Initial residual = 0.000345078, Final residual = 4.67556e-17, No Iterations 1
smoothSolver:  Solving for e, Initial residual = 0.000633879, Final residual = 6.45609e-16, No Iterations 7
smoothSolver:  Solving for p, Initial residual = 0.000350536, Final residual = 1.4354e-16, No Iterations 6
diagonal:  Solving for rho, Initial residual = 0, Final residual = 0, No Iterations 0
time step continuity errors : sum local = 1.90337e-16, global = -7.55589e-17, cumulative = 3.71306e-13
ExecutionTime = 1.82 s  ClockTime = 2 s

Time = 0.00999

Courant Number mean: 0.202685 max: 0.290158
diagonal:  Solving for rho, Initial residual = 0, Final residual = 0, No Iterations 0
PIMPLE: iteration 1
smoothSolver:  Solving for Ux, Initial residual = 0.000345252, Final residual = 4.62682e-17, No Iterations 1
smoothSolver:  Solving for e, Initial residual = 0.00063397, Final residual = 6.4843e-16, No Iterations 7
smoothSolver:  Solving for p, Initial residual = 0.000350709, Final residual = 1.40863e-16, No Iterations 6
diagonal:  Solving for rho, Initial residual = 0, Final residual = 0, No Iterations 0
time step continuity errors : sum local = 1.92649e-16, global = -7.40806e-17, cumulative = 3.71232e-13
ExecutionTime = 1.83 s  ClockTime = 2 s

Time = 0.01

Courant Number mean: 0.202743 max: 0.29016
diagonal:  Solving for rho, Initial residual = 0, Final residual = 0, No Iterations 0
PIMPLE: iteration 1
smoothSolver:  Solving for Ux, Initial residual = 0.00034543, Final residual = 5.1288e-17, No Iterations 1
smoothSolver:  Solving for e, Initial residual = 0.000634064, Final residual = 6.47105e-16, No Iterations 7
smoothSolver:  Solving for p, Initial residual = 0.000350883, Final residual = 1.40375e-16, No Iterations 6
diagonal:  Solving for rho, Initial residual = 0, Final residual = 0, No Iterations 0
time step continuity errors : sum local = 1.91486e-16, global = -7.80643e-17, cumulative = 3.71154e-13
ExecutionTime = 1.83 s  ClockTime = 2 s

    functionObjects::mag mag(U) writing field: mag(U)
End

