/*---------------------------------------------------------------------------*\
| =========                 |                                                 |
| \\      /  F ield         | OpenFOAM: The Open Source CFD Toolbox           |
|  \\    /   O peration     | Version:  2012                                  |
|   \\  /    A nd           | Website:  www.openfoam.com                      |
|    \\/     M anipulation  |                                                 |
\*---------------------------------------------------------------------------*/
Build  : _269d0ffd5c-20210619 OPENFOAM=2012 patch=210618
Arch   : "LSB;label=32;scalar=64"
Exec   : icoFoam
Date   : Apr 26 2022
Time   : 19:14:42
Host   : gabrielmarconcini-Lenovo-G50-80
PID    : 34204
I/O    : uncollated
Case   : /home/gabrielmarconcini/Documentos/TCC/PTCC/Poiseuille/icoFoam/sim1
nProcs : 1
trapFpe: Floating point exception trapping enabled (FOAM_SIGFPE).
fileModificationChecking : Monitoring run-time modified files using timeStampMaster (fileModificationSkew 5, maxFileModificationPolls 20)
allowSystemOperations : Allowing user-supplied system call operations

// * * * * * * * * * * * * * * * * * * * * * * * * * * * * * * * * * * * * * //
Create time

Create mesh for time = 0


PISO: Operating solver in PISO mode

Reading transportProperties

Reading field p

Reading field U

Reading/calculating face flux field phi


Starting time loop

Time = 0.001

Courant Number mean: 2.5e-05 max: 0.0025
smoothSolver:  Solving for Ux, Initial residual = 1, Final residual = 3.15699e-06, No Iterations 5
smoothSolver:  Solving for Uy, Initial residual = 0, Final residual = 0, No Iterations 0
DICPCG:  Solving for p, Initial residual = 1, Final residual = 0.0420948, No Iterations 81
time step continuity errors : sum local = 2.10474e-06, global = 3.65552e-08, cumulative = 3.65552e-08
DICPCG:  Solving for p, Initial residual = 0.00245128, Final residual = 0.000101144, No Iterations 80
time step continuity errors : sum local = 1.034e-06, global = -3.2648e-09, cumulative = 3.32904e-08
DICPCG:  Solving for p, Initial residual = 0.000678662, Final residual = 6.65267e-07, No Iterations 90
time step continuity errors : sum local = 3.76955e-09, global = 4.18413e-11, cumulative = 3.33323e-08
ExecutionTime = 0.35 s  ClockTime = 5 s

Time = 0.002

Courant Number mean: 0.00501095 max: 0.00644026
smoothSolver:  Solving for Ux, Initial residual = 0.936604, Final residual = 4.79848e-06, No Iterations 5
smoothSolver:  Solving for Uy, Initial residual = 0.381599, Final residual = 1.58605e-06, No Iterations 5
DICPCG:  Solving for p, Initial residual = 0.00892609, Final residual = 0.000369976, No Iterations 81
time step continuity errors : sum local = 2.08061e-06, global = -3.76165e-08, cumulative = -4.28424e-09
DICPCG:  Solving for p, Initial residual = 0.00558639, Final residual = 0.000232181, No Iterations 80
time step continuity errors : sum local = 1.02502e-06, global = 5.7006e-09, cumulative = 1.41636e-09
DICPCG:  Solving for p, Initial residual = 0.037009, Final residual = 7.65275e-07, No Iterations 99
time step continuity errors : sum local = 7.19452e-11, global = -3.34137e-13, cumulative = 1.41602e-09
ExecutionTime = 0.37 s  ClockTime = 5 s

Time = 0.003

Courant Number mean: 0.00501982 max: 0.00754802
smoothSolver:  Solving for Ux, Initial residual = 0.126269, Final residual = 4.51189e-06, No Iterations 4
smoothSolver:  Solving for Uy, Initial residual = 0.197047, Final residual = 9.86512e-06, No Iterations 4
DICPCG:  Solving for p, Initial residual = 0.0314189, Final residual = 0.00123313, No Iterations 80
time step continuity errors : sum local = 1.37243e-07, global = -1.42776e-09, cumulative = -1.17427e-11
DICPCG:  Solving for p, Initial residual = 0.0131955, Final residual = 0.000542862, No Iterations 82
time step continuity errors : sum local = 3.91311e-08, global = 5.35576e-10, cumulative = 5.23833e-10
DICPCG:  Solving for p, Initial residual = 0.00210949, Final residual = 5.6247e-07, No Iterations 90
time step continuity errors : sum local = 4.99868e-11, global = 6.96343e-13, cumulative = 5.2453e-10
ExecutionTime = 0.4 s  ClockTime = 5 s

Time = 0.004

Courant Number mean: 0.00502574 max: 0.00825667
smoothSolver:  Solving for Ux, Initial residual = 0.0802618, Final residual = 3.08407e-06, No Iterations 4
smoothSolver:  Solving for Uy, Initial residual = 0.0996776, Final residual = 4.74831e-06, No Iterations 4
DICPCG:  Solving for p, Initial residual = 0.0215888, Final residual = 0.000980871, No Iterations 79
time step continuity errors : sum local = 8.58276e-08, global = 1.9813e-09, cumulative = 2.50583e-09
DICPCG:  Solving for p, Initial residual = 0.00814505, Final residual = 0.000206299, No Iterations 80
time step continuity errors : sum local = 1.30827e-08, global = -8.34482e-11, cumulative = 2.42239e-09
DICPCG:  Solving for p, Initial residual = 0.00146051, Final residual = 8.79789e-07, No Iterations 86
time step continuity errors : sum local = 6.49617e-11, global = -1.89932e-12, cumulative = 2.42049e-09
ExecutionTime = 0.42 s  ClockTime = 5 s

Time = 0.005

Courant Number mean: 0.0050305 max: 0.00876373
smoothSolver:  Solving for Ux, Initial residual = 0.0572438, Final residual = 2.34226e-06, No Iterations 4
smoothSolver:  Solving for Uy, Initial residual = 0.0693823, Final residual = 3.34576e-06, No Iterations 4
DICPCG:  Solving for p, Initial residual = 0.0156412, Final residual = 0.000616421, No Iterations 79
time step continuity errors : sum local = 4.49499e-08, global = 9.74738e-10, cumulative = 3.39523e-09
DICPCG:  Solving for p, Initial residual = 0.00511183, Final residual = 0.000125358, No Iterations 80
time step continuity errors : sum local = 7.21615e-09, global = -3.9159e-11, cumulative = 3.35607e-09
DICPCG:  Solving for p, Initial residual = 0.000983303, Final residual = 8.27266e-07, No Iterations 85
time step continuity errors : sum local = 5.30955e-11, global = -1.59275e-12, cumulative = 3.35447e-09
ExecutionTime = 0.44 s  ClockTime = 5 s

Time = 0.006

Courant Number mean: 0.00503452 max: 0.00916484
smoothSolver:  Solving for Ux, Initial residual = 0.0443672, Final residual = 1.89613e-06, No Iterations 4
smoothSolver:  Solving for Uy, Initial residual = 0.0525529, Final residual = 2.56814e-06, No Iterations 4
DICPCG:  Solving for p, Initial residual = 0.0128374, Final residual = 0.000397662, No Iterations 79
time step continuity errors : sum local = 2.5258e-08, global = 4.97561e-10, cumulative = 3.85203e-09
DICPCG:  Solving for p, Initial residual = 0.0034199, Final residual = 8.12151e-05, No Iterations 80
time step continuity errors : sum local = 4.30289e-09, global = -1.74585e-11, cumulative = 3.83458e-09
DICPCG:  Solving for p, Initial residual = 0.000699021, Final residual = 9.43705e-07, No Iterations 84
time step continuity errors : sum local = 5.42621e-11, global = -1.12615e-12, cumulative = 3.83345e-09
ExecutionTime = 0.47 s  ClockTime = 5 s

Time = 0.007

Courant Number mean: 0.00503803 max: 0.00954574
smoothSolver:  Solving for Ux, Initial residual = 0.036325, Final residual = 1.61463e-06, No Iterations 4
smoothSolver:  Solving for Uy, Initial residual = 0.0420696, Final residual = 2.08006e-06, No Iterations 4
DICPCG:  Solving for p, Initial residual = 0.0106934, Final residual = 0.000266336, No Iterations 79
time step continuity errors : sum local = 1.51793e-08, global = 2.62805e-10, cumulative = 4.09625e-09
DICPCG:  Solving for p, Initial residual = 0.00237138, Final residual = 5.53397e-05, No Iterations 80
time step continuity errors : sum local = 2.72873e-09, global = -7.51574e-12, cumulative = 4.08874e-09
DICPCG:  Solving for p, Initial residual = 0.000509464, Final residual = 9.84244e-07, No Iterations 83
time step continuity errors : sum local = 5.17613e-11, global = -5.92819e-13, cumulative = 4.08815e-09
ExecutionTime = 0.49 s  ClockTime = 5 s

Time = 0.008

Courant Number mean: 0.00504116 max: 0.00985882
smoothSolver:  Solving for Ux, Initial residual = 0.0304851, Final residual = 1.40151e-06, No Iterations 4
smoothSolver:  Solving for Uy, Initial residual = 0.0349856, Final residual = 1.74768e-06, No Iterations 4
DICPCG:  Solving for p, Initial residual = 0.00887789, Final residual = 0.000414845, No Iterations 78
time step continuity errors : sum local = 2.16519e-08, global = 5.18193e-10, cumulative = 4.60634e-09
DICPCG:  Solving for p, Initial residual = 0.00198385, Final residual = 8.37486e-05, No Iterations 79
time step continuity errors : sum local = 3.87917e-09, global = -5.78695e-11, cumulative = 4.54847e-09
DICPCG:  Solving for p, Initial residual = 0.000449856, Final residual = 7.99754e-07, No Iterations 83
time step continuity errors : sum local = 3.90391e-11, global = -7.05975e-13, cumulative = 4.54776e-09
ExecutionTime = 0.51 s  ClockTime = 5 s

Time = 0.009

Courant Number mean: 0.00504401 max: 0.0101189
smoothSolver:  Solving for Ux, Initial residual = 0.0264171, Final residual = 1.23499e-06, No Iterations 4
smoothSolver:  Solving for Uy, Initial residual = 0.0298994, Final residual = 1.50801e-06, No Iterations 4
DICPCG:  Solving for p, Initial residual = 0.00753538, Final residual = 0.000296487, No Iterations 78
time step continuity errors : sum local = 1.43774e-08, global = 3.2112e-10, cumulative = 4.86888e-09
DICPCG:  Solving for p, Initial residual = 0.00144331, Final residual = 6.14258e-05, No Iterations 79
time step continuity errors : sum local = 2.69147e-09, global = -3.54306e-11, cumulative = 4.83345e-09
DICPCG:  Solving for p, Initial residual = 0.000348034, Final residual = 8.81603e-07, No Iterations 83
time step continuity errors : sum local = 4.03764e-11, global = -7.1235e-13, cumulative = 4.83274e-09
ExecutionTime = 0.55 s  ClockTime = 5 s

Time = 0.01

Courant Number mean: 0.00504662 max: 0.0103369
smoothSolver:  Solving for Ux, Initial residual = 0.0233087, Final residual = 1.11006e-06, No Iterations 4
smoothSolver:  Solving for Uy, Initial residual = 0.0260549, Final residual = 1.32551e-06, No Iterations 4
DICPCG:  Solving for p, Initial residual = 0.0064923, Final residual = 0.000222926, No Iterations 78
time step continuity errors : sum local = 1.01514e-08, global = 2.13748e-10, cumulative = 5.04649e-09
DICPCG:  Solving for p, Initial residual = 0.00108065, Final residual = 4.71153e-05, No Iterations 79
time step continuity errors : sum local = 1.96493e-09, global = -2.24895e-11, cumulative = 5.024e-09
DICPCG:  Solving for p, Initial residual = 0.000277828, Final residual = 7.10315e-07, No Iterations 83
time step continuity errors : sum local = 3.07764e-11, global = -4.24732e-13, cumulative = 5.02357e-09
ExecutionTime = 0.57 s  ClockTime = 5 s

Time = 0.011

Courant Number mean: 0.00504905 max: 0.0105211
smoothSolver:  Solving for Ux, Initial residual = 0.0207977, Final residual = 1.01106e-06, No Iterations 4
smoothSolver:  Solving for Uy, Initial residual = 0.0230539, Final residual = 1.18226e-06, No Iterations 4
DICPCG:  Solving for p, Initial residual = 0.00559405, Final residual = 0.000176244, No Iterations 78
time step continuity errors : sum local = 7.59812e-09, global = 1.51025e-10, cumulative = 5.1746e-09
DICPCG:  Solving for p, Initial residual = 0.00084114, Final residual = 3.7434e-05, No Iterations 79
time step continuity errors : sum local = 1.49356e-09, global = -1.47379e-11, cumulative = 5.15986e-09
DICPCG:  Solving for p, Initial residual = 0.000225138, Final residual = 9.31384e-07, No Iterations 82
time step continuity errors : sum local = 3.84275e-11, global = -2.56634e-13, cumulative = 5.1596e-09
ExecutionTime = 0.59 s  ClockTime = 5 s

Time = 0.012

Courant Number mean: 0.00505132 max: 0.0106778
smoothSolver:  Solving for Ux, Initial residual = 0.0187338, Final residual = 9.27367e-07, No Iterations 4
smoothSolver:  Solving for Uy, Initial residual = 0.0206454, Final residual = 1.06663e-06, No Iterations 4
DICPCG:  Solving for p, Initial residual = 0.00482464, Final residual = 0.000145909, No Iterations 78
time step continuity errors : sum local = 5.99413e-09, global = 1.11593e-10, cumulative = 5.2712e-09
DICPCG:  Solving for p, Initial residual = 0.00069165, Final residual = 3.04662e-05, No Iterations 79
time step continuity errors : sum local = 1.16813e-09, global = -9.92021e-12, cumulative = 5.26128e-09
DICPCG:  Solving for p, Initial residual = 0.000184391, Final residual = 8.72555e-07, No Iterations 82
time step continuity errors : sum local = 3.44679e-11, global = -1.26915e-13, cumulative = 5.26115e-09
ExecutionTime = 0.62 s  ClockTime = 6 s

Time = 0.013

Courant Number mean: 0.00505345 max: 0.0108122
smoothSolver:  Solving for Ux, Initial residual = 0.0171187, Final residual = 8.53474e-07, No Iterations 4
smoothSolver:  Solving for Uy, Initial residual = 0.0186702, Final residual = 9.71199e-07, No Iterations 4
DICPCG:  Solving for p, Initial residual = 0.00422079, Final residual = 0.00012485, No Iterations 78
time step continuity errors : sum local = 4.91338e-09, global = 8.59973e-11, cumulative = 5.34715e-09
DICPCG:  Solving for p, Initial residual = 0.000580782, Final residual = 2.52344e-05, No Iterations 79
time step continuity errors : sum local = 9.33256e-10, global = -6.81103e-12, cumulative = 5.34034e-09
DICPCG:  Solving for p, Initial residual = 0.000152333, Final residual = 8.1488e-07, No Iterations 82
time step continuity errors : sum local = 3.09566e-11, global = -1.02252e-13, cumulative = 5.34024e-09
ExecutionTime = 0.64 s  ClockTime = 6 s

Time = 0.014

Courant Number mean: 0.00505546 max: 0.010928
smoothSolver:  Solving for Ux, Initial residual = 0.0156943, Final residual = 9.26743e-06, No Iterations 3
smoothSolver:  Solving for Uy, Initial residual = 0.0170212, Final residual = 8.91011e-07, No Iterations 4
DICPCG:  Solving for p, Initial residual = 0.00371109, Final residual = 0.000109718, No Iterations 78
time step continuity errors : sum local = 4.15434e-09, global = 6.97223e-11, cumulative = 5.40996e-09
DICPCG:  Solving for p, Initial residual = 0.000492725, Final residual = 2.13975e-05, No Iterations 79
time step continuity errors : sum local = 7.65806e-10, global = -4.8195e-12, cumulative = 5.40514e-09
DICPCG:  Solving for p, Initial residual = 0.000126832, Final residual = 9.2812e-07, No Iterations 81
time step continuity errors : sum local = 3.40332e-11, global = 3.64595e-14, cumulative = 5.40517e-09
ExecutionTime = 0.66 s  ClockTime = 6 s

Time = 0.015

Courant Number mean: 0.00505737 max: 0.0110284
smoothSolver:  Solving for Ux, Initial residual = 0.0144571, Final residual = 8.5877e-06, No Iterations 3
smoothSolver:  Solving for Uy, Initial residual = 0.0156234, Final residual = 9.61243e-06, No Iterations 3
DICPCG:  Solving for p, Initial residual = 0.00326497, Final residual = 9.60308e-05, No Iterations 78
time step continuity errors : sum local = 3.51112e-09, global = 5.77713e-11, cumulative = 5.46295e-09
DICPCG:  Solving for p, Initial residual = 0.000422512, Final residual = 1.80859e-05, No Iterations 79
time step continuity errors : sum local = 6.28064e-10, global = -3.39329e-12, cumulative = 5.45955e-09
DICPCG:  Solving for p, Initial residual = 0.000106228, Final residual = 8.41646e-07, No Iterations 81
time step continuity errors : sum local = 2.98833e-11, global = 6.44266e-14, cumulative = 5.45962e-09
ExecutionTime = 0.68 s  ClockTime = 6 s

Time = 0.016

Courant Number mean: 0.00505918 max: 0.0111159
smoothSolver:  Solving for Ux, Initial residual = 0.0133723, Final residual = 8.03379e-06, No Iterations 3
smoothSolver:  Solving for Uy, Initial residual = 0.0144232, Final residual = 8.91263e-06, No Iterations 3
DICPCG:  Solving for p, Initial residual = 0.00288391, Final residual = 8.54786e-05, No Iterations 78
time step continuity errors : sum local = 3.02727e-09, global = 4.92997e-11, cumulative = 5.50892e-09
DICPCG:  Solving for p, Initial residual = 0.000366104, Final residual = 1.56578e-05, No Iterations 79
time step continuity errors : sum local = 5.28882e-10, global = -2.43898e-12, cumulative = 5.50648e-09
DICPCG:  Solving for p, Initial residual = 8.97772e-05, Final residual = 7.91559e-07, No Iterations 81
time step continuity errors : sum local = 2.72877e-11, global = 6.81335e-14, cumulative = 5.50655e-09
ExecutionTime = 0.7 s  ClockTime = 6 s

Time = 0.017

Courant Number mean: 0.00506091 max: 0.0112096
smoothSolver:  Solving for Ux, Initial residual = 0.012419, Final residual = 7.54209e-06, No Iterations 3
smoothSolver:  Solving for Uy, Initial residual = 0.0133822, Final residual = 8.30231e-06, No Iterations 3
DICPCG:  Solving for p, Initial residual = 0.00256231, Final residual = 7.6957e-05, No Iterations 78
time step continuity errors : sum local = 2.64803e-09, global = 4.29706e-11, cumulative = 5.54952e-09
DICPCG:  Solving for p, Initial residual = 0.000319763, Final residual = 1.3712e-05, No Iterations 79
time step continuity errors : sum local = 4.51774e-10, global = -1.76984e-12, cumulative = 5.54775e-09
DICPCG:  Solving for p, Initial residual = 7.63126e-05, Final residual = 9.83902e-07, No Iterations 80
time step continuity errors : sum local = 3.30303e-11, global = 1.75737e-13, cumulative = 5.54792e-09
ExecutionTime = 0.73 s  ClockTime = 6 s

Time = 0.018

Courant Number mean: 0.00506256 max: 0.0113037
smoothSolver:  Solving for Ux, Initial residual = 0.0116472, Final residual = 7.09928e-06, No Iterations 3
smoothSolver:  Solving for Uy, Initial residual = 0.01247, Final residual = 7.76496e-06, No Iterations 3
DICPCG:  Solving for p, Initial residual = 0.00228165, Final residual = 6.98241e-05, No Iterations 78
time step continuity errors : sum local = 2.34057e-09, global = 3.77751e-11, cumulative = 5.5857e-09
DICPCG:  Solving for p, Initial residual = 0.000281833, Final residual = 1.21459e-05, No Iterations 79
time step continuity errors : sum local = 3.91144e-10, global = -1.29759e-12, cumulative = 5.5844e-09
DICPCG:  Solving for p, Initial residual = 6.57982e-05, Final residual = 8.99619e-07, No Iterations 80
time step continuity errors : sum local = 2.94793e-11, global = 1.80868e-13, cumulative = 5.58458e-09
ExecutionTime = 0.75 s  ClockTime = 6 s

Time = 0.019

Courant Number mean: 0.00506414 max: 0.0113879
smoothSolver:  Solving for Ux, Initial residual = 0.010955, Final residual = 6.69797e-06, No Iterations 3
smoothSolver:  Solving for Uy, Initial residual = 0.0116639, Final residual = 7.28812e-06, No Iterations 3
DICPCG:  Solving for p, Initial residual = 0.00203232, Final residual = 6.34492e-05, No Iterations 78
time step continuity errors : sum local = 2.07647e-09, global = 3.31645e-11, cumulative = 5.61774e-09
DICPCG:  Solving for p, Initial residual = 0.00024997, Final residual = 1.08913e-05, No Iterations 79
time step continuity errors : sum local = 3.43379e-10, global = -9.2904e-13, cumulative = 5.61682e-09
DICPCG:  Solving for p, Initial residual = 5.75123e-05, Final residual = 8.5391e-07, No Iterations 80
time step continuity errors : sum local = 2.73617e-11, global = 1.743e-13, cumulative = 5.61699e-09
ExecutionTime = 0.77 s  ClockTime = 6 s

Time = 0.02

Courant Number mean: 0.00506566 max: 0.0114633
smoothSolver:  Solving for Ux, Initial residual = 0.0103277, Final residual = 6.3324e-06, No Iterations 3
smoothSolver:  Solving for Uy, Initial residual = 0.0109463, Final residual = 6.86188e-06, No Iterations 3
DICPCG:  Solving for p, Initial residual = 0.00181641, Final residual = 5.83743e-05, No Iterations 78
time step continuity errors : sum local = 1.86834e-09, global = 2.9469e-11, cumulative = 5.64646e-09
DICPCG:  Solving for p, Initial residual = 0.00022397, Final residual = 9.80189e-06, No Iterations 79
time step continuity errors : sum local = 3.02972e-10, global = -6.42113e-13, cumulative = 5.64582e-09
DICPCG:  Solving for p, Initial residual = 5.05296e-05, Final residual = 7.97331e-07, No Iterations 80
time step continuity errors : sum local = 2.50216e-11, global = 1.64728e-13, cumulative = 5.64598e-09
ExecutionTime = 0.79 s  ClockTime = 6 s

Time = 0.021

Courant Number mean: 0.00506712 max: 0.0115312
smoothSolver:  Solving for Ux, Initial residual = 0.00975628, Final residual = 5.99802e-06, No Iterations 3
smoothSolver:  Solving for Uy, Initial residual = 0.0103033, Final residual = 6.47845e-06, No Iterations 3
DICPCG:  Solving for p, Initial residual = 0.00162906, Final residual = 5.43485e-05, No Iterations 78
time step continuity errors : sum local = 1.70383e-09, global = 2.67754e-11, cumulative = 5.67276e-09
DICPCG:  Solving for p, Initial residual = 0.000202927, Final residual = 8.88789e-06, No Iterations 79
time step continuity errors : sum local = 2.69678e-10, global = -4.41282e-13, cumulative = 5.67232e-09
DICPCG:  Solving for p, Initial residual = 4.4688e-05, Final residual = 7.48574e-07, No Iterations 80
time step continuity errors : sum local = 2.30387e-11, global = 1.51857e-13, cumulative = 5.67247e-09
ExecutionTime = 0.81 s  ClockTime = 6 s

Time = 0.022

Courant Number mean: 0.00506853 max: 0.0115924
smoothSolver:  Solving for Ux, Initial residual = 0.00922845, Final residual = 5.69503e-06, No Iterations 3
smoothSolver:  Solving for Uy, Initial residual = 0.00972397, Final residual = 6.13157e-06, No Iterations 3
DICPCG:  Solving for p, Initial residual = 0.0014618, Final residual = 5.06476e-05, No Iterations 78
time step continuity errors : sum local = 1.55739e-09, global = 2.43863e-11, cumulative = 5.69685e-09
DICPCG:  Solving for p, Initial residual = 0.000185461, Final residual = 8.21522e-06, No Iterations 79
time step continuity errors : sum local = 2.44979e-10, global = -3.02569e-13, cumulative = 5.69655e-09
DICPCG:  Solving for p, Initial residual = 3.96271e-05, Final residual = 9.47986e-07, No Iterations 79
time step continuity errors : sum local = 2.86494e-11, global = -8.43772e-14, cumulative = 5.69647e-09
ExecutionTime = 0.84 s  ClockTime = 6 s

Time = 0.023

Courant Number mean: 0.00506988 max: 0.0116478
smoothSolver:  Solving for Ux, Initial residual = 0.00873375, Final residual = 5.42793e-06, No Iterations 3
smoothSolver:  Solving for Uy, Initial residual = 0.00919922, Final residual = 5.81618e-06, No Iterations 3
DICPCG:  Solving for p, Initial residual = 0.00131316, Final residual = 4.71119e-05, No Iterations 78
time step continuity errors : sum local = 1.42269e-09, global = 2.21547e-11, cumulative = 5.71862e-09
DICPCG:  Solving for p, Initial residual = 0.000170388, Final residual = 7.62297e-06, No Iterations 79
time step continuity errors : sum local = 2.23636e-10, global = -2.68533e-13, cumulative = 5.71835e-09
DICPCG:  Solving for p, Initial residual = 3.53686e-05, Final residual = 8.71043e-07, No Iterations 79
time step continuity errors : sum local = 2.58784e-11, global = -8.05744e-14, cumulative = 5.71827e-09
ExecutionTime = 0.86 s  ClockTime = 6 s

Time = 0.024

Courant Number mean: 0.00507119 max: 0.0116979
smoothSolver:  Solving for Ux, Initial residual = 0.00828639, Final residual = 5.17783e-06, No Iterations 3
smoothSolver:  Solving for Uy, Initial residual = 0.00872161, Final residual = 5.52804e-06, No Iterations 3
DICPCG:  Solving for p, Initial residual = 0.00118386, Final residual = 4.38764e-05, No Iterations 78
time step continuity errors : sum local = 1.30266e-09, global = 2.02095e-11, cumulative = 5.73848e-09
DICPCG:  Solving for p, Initial residual = 0.000157171, Final residual = 7.08429e-06, No Iterations 79
time step continuity errors : sum local = 2.0466e-10, global = -2.21614e-13, cumulative = 5.73826e-09
DICPCG:  Solving for p, Initial residual = 3.17212e-05, Final residual = 8.23905e-07, No Iterations 79
time step continuity errors : sum local = 2.40878e-11, global = -8.68904e-14, cumulative = 5.73817e-09
ExecutionTime = 0.88 s  ClockTime = 6 s

Time = 0.025

Courant Number mean: 0.00507245 max: 0.0117435
smoothSolver:  Solving for Ux, Initial residual = 0.00790002, Final residual = 4.94569e-06, No Iterations 3
smoothSolver:  Solving for Uy, Initial residual = 0.00828514, Final residual = 5.26378e-06, No Iterations 3
DICPCG:  Solving for p, Initial residual = 0.00106901, Final residual = 4.08802e-05, No Iterations 78
time step continuity errors : sum local = 1.19445e-09, global = 1.84615e-11, cumulative = 5.75664e-09
DICPCG:  Solving for p, Initial residual = 0.000145434, Final residual = 6.59518e-06, No Iterations 79
time step continuity errors : sum local = 1.87784e-10, global = -1.99053e-13, cumulative = 5.75644e-09
DICPCG:  Solving for p, Initial residual = 2.86177e-05, Final residual = 7.687e-07, No Iterations 79
time step continuity errors : sum local = 2.21357e-11, global = -9.11632e-14, cumulative = 5.75635e-09
ExecutionTime = 0.91 s  ClockTime = 6 s

Time = 0.026

Courant Number mean: 0.00507367 max: 0.011785
smoothSolver:  Solving for Ux, Initial residual = 0.00754207, Final residual = 4.72944e-06, No Iterations 3
smoothSolver:  Solving for Uy, Initial residual = 0.00788463, Final residual = 5.02044e-06, No Iterations 3
DICPCG:  Solving for p, Initial residual = 0.000966291, Final residual = 3.81742e-05, No Iterations 78
time step continuity errors : sum local = 1.09869e-09, global = 1.69128e-11, cumulative = 5.77326e-09
DICPCG:  Solving for p, Initial residual = 0.000135003, Final residual = 6.15965e-06, No Iterations 79
time step continuity errors : sum local = 1.7299e-10, global = -1.85172e-13, cumulative = 5.77307e-09
DICPCG:  Solving for p, Initial residual = 2.59132e-05, Final residual = 7.22608e-07, No Iterations 79
time step continuity errors : sum local = 2.05127e-11, global = -9.68162e-14, cumulative = 5.77298e-09
ExecutionTime = 0.93 s  ClockTime = 6 s

Time = 0.027

Courant Number mean: 0.00507485 max: 0.0118228
smoothSolver:  Solving for Ux, Initial residual = 0.00720931, Final residual = 4.52756e-06, No Iterations 3
smoothSolver:  Solving for Uy, Initial residual = 0.00751585, Final residual = 4.79561e-06, No Iterations 3
DICPCG:  Solving for p, Initial residual = 0.000875491, Final residual = 3.57663e-05, No Iterations 78
time step continuity errors : sum local = 1.01483e-09, global = 1.55456e-11, cumulative = 5.78852e-09
DICPCG:  Solving for p, Initial residual = 0.000125781, Final residual = 5.77115e-06, No Iterations 79
time step continuity errors : sum local = 1.59984e-10, global = -1.78709e-13, cumulative = 5.78834e-09
DICPCG:  Solving for p, Initial residual = 2.35649e-05, Final residual = 6.79486e-07, No Iterations 79
time step continuity errors : sum local = 1.90294e-11, global = -9.98673e-14, cumulative = 5.78824e-09
ExecutionTime = 0.96 s  ClockTime = 6 s

Time = 0.028

Courant Number mean: 0.00507599 max: 0.0118574
smoothSolver:  Solving for Ux, Initial residual = 0.00689862, Final residual = 4.33863e-06, No Iterations 3
smoothSolver:  Solving for Uy, Initial residual = 0.00717514, Final residual = 4.58722e-06, No Iterations 3
DICPCG:  Solving for p, Initial residual = 0.000795886, Final residual = 3.3612e-05, No Iterations 78
time step continuity errors : sum local = 9.40937e-10, global = 1.43415e-11, cumulative = 5.80258e-09
DICPCG:  Solving for p, Initial residual = 0.000117829, Final residual = 5.42095e-06, No Iterations 79
time step continuity errors : sum local = 1.48433e-10, global = -1.7643e-13, cumulative = 5.80241e-09
DICPCG:  Solving for p, Initial residual = 2.15571e-05, Final residual = 6.4062e-07, No Iterations 79
time step continuity errors : sum local = 1.77122e-11, global = -1.00137e-13, cumulative = 5.80231e-09
ExecutionTime = 0.98 s  ClockTime = 6 s

Time = 0.029

Courant Number mean: 0.0050771 max: 0.011889
smoothSolver:  Solving for Ux, Initial residual = 0.00660791, Final residual = 4.16152e-06, No Iterations 3
smoothSolver:  Solving for Uy, Initial residual = 0.00685941, Final residual = 4.39349e-06, No Iterations 3
DICPCG:  Solving for p, Initial residual = 0.000724679, Final residual = 3.16918e-05, No Iterations 78
time step continuity errors : sum local = 8.75952e-10, global = 1.32684e-11, cumulative = 5.81558e-09
DICPCG:  Solving for p, Initial residual = 0.000110884, Final residual = 5.10763e-06, No Iterations 79
time step continuity errors : sum local = 1.38233e-10, global = -1.75542e-13, cumulative = 5.8154e-09
DICPCG:  Solving for p, Initial residual = 1.98267e-05, Final residual = 9.8259e-07, No Iterations 78
time step continuity errors : sum local = 2.68402e-11, global = -5.55048e-13, cumulative = 5.81485e-09
ExecutionTime = 1 s  ClockTime = 6 s

Time = 0.03

Courant Number mean: 0.00507818 max: 0.0119181
smoothSolver:  Solving for Ux, Initial residual = 0.00633532, Final residual = 3.99525e-06, No Iterations 3
smoothSolver:  Solving for Uy, Initial residual = 0.00656615, Final residual = 4.21298e-06, No Iterations 3
DICPCG:  Solving for p, Initial residual = 0.000661485, Final residual = 2.98705e-05, No Iterations 78
time step continuity errors : sum local = 8.15725e-10, global = 1.22312e-11, cumulative = 5.82708e-09
DICPCG:  Solving for p, Initial residual = 0.000104742, Final residual = 4.80595e-06, No Iterations 79
time step continuity errors : sum local = 1.28637e-10, global = -1.81869e-13, cumulative = 5.8269e-09
DICPCG:  Solving for p, Initial residual = 1.82991e-05, Final residual = 9.24058e-07, No Iterations 78
time step continuity errors : sum local = 2.49532e-11, global = -5.09356e-13, cumulative = 5.82639e-09
ExecutionTime = 1.03 s  ClockTime = 6 s

Time = 0.031

Courant Number mean: 0.00507922 max: 0.0119448
smoothSolver:  Solving for Ux, Initial residual = 0.00607925, Final residual = 3.83934e-06, No Iterations 3
smoothSolver:  Solving for Uy, Initial residual = 0.00629276, Final residual = 4.04418e-06, No Iterations 3
DICPCG:  Solving for p, Initial residual = 0.000602995, Final residual = 2.82629e-05, No Iterations 78
time step continuity errors : sum local = 7.63044e-10, global = 1.13331e-11, cumulative = 5.83772e-09
DICPCG:  Solving for p, Initial residual = 9.8979e-05, Final residual = 4.54793e-06, No Iterations 79
time step continuity errors : sum local = 1.20455e-10, global = -1.70054e-13, cumulative = 5.83755e-09
DICPCG:  Solving for p, Initial residual = 1.69726e-05, Final residual = 8.88407e-07, No Iterations 78
time step continuity errors : sum local = 2.37299e-11, global = -4.83398e-13, cumulative = 5.83707e-09
ExecutionTime = 1.05 s  ClockTime = 6 s

Time = 0.032

Courant Number mean: 0.00508023 max: 0.0119694
smoothSolver:  Solving for Ux, Initial residual = 0.00583837, Final residual = 3.69916e-06, No Iterations 3
smoothSolver:  Solving for Uy, Initial residual = 0.00603754, Final residual = 3.88613e-06, No Iterations 3
DICPCG:  Solving for p, Initial residual = 0.000550805, Final residual = 2.68865e-05, No Iterations 78
time step continuity errors : sum local = 7.18025e-10, global = 1.05569e-11, cumulative = 5.84762e-09
DICPCG:  Solving for p, Initial residual = 9.39959e-05, Final residual = 4.29823e-06, No Iterations 79
time step continuity errors : sum local = 1.12704e-10, global = -1.65152e-13, cumulative = 5.84746e-09
DICPCG:  Solving for p, Initial residual = 1.58127e-05, Final residual = 8.46353e-07, No Iterations 78
time step continuity errors : sum local = 2.23726e-11, global = -4.50129e-13, cumulative = 5.84701e-09
ExecutionTime = 1.07 s  ClockTime = 6 s

Time = 0.033

Courant Number mean: 0.00508122 max: 0.0119922
smoothSolver:  Solving for Ux, Initial residual = 0.00561142, Final residual = 3.57048e-06, No Iterations 3
smoothSolver:  Solving for Uy, Initial residual = 0.00579862, Final residual = 3.73777e-06, No Iterations 3
DICPCG:  Solving for p, Initial residual = 0.000504232, Final residual = 1.18659e-05, No Iterations 79
time step continuity errors : sum local = 3.13617e-10, global = 1.07816e-12, cumulative = 5.84809e-09
DICPCG:  Solving for p, Initial residual = 7.43737e-05, Final residual = 2.15361e-06, No Iterations 80
time step continuity errors : sum local = 5.59295e-11, global = 4.96823e-13, cumulative = 5.84858e-09
DICPCG:  Solving for p, Initial residual = 1.11436e-05, Final residual = 9.9748e-07, No Iterations 8
time step continuity errors : sum local = 2.61068e-11, global = -4.06144e-12, cumulative = 5.84452e-09
ExecutionTime = 1.09 s  ClockTime = 6 s

Time = 0.034

Courant Number mean: 0.00508218 max: 0.0120131
smoothSolver:  Solving for Ux, Initial residual = 0.00541308, Final residual = 3.44838e-06, No Iterations 3
smoothSolver:  Solving for Uy, Initial residual = 0.00557456, Final residual = 3.59831e-06, No Iterations 3
DICPCG:  Solving for p, Initial residual = 0.000461617, Final residual = 1.14285e-05, No Iterations 79
time step continuity errors : sum local = 2.99067e-10, global = 1.01658e-12, cumulative = 5.84554e-09
DICPCG:  Solving for p, Initial residual = 7.16698e-05, Final residual = 2.05535e-06, No Iterations 80
time step continuity errors : sum local = 5.28927e-11, global = 4.51831e-13, cumulative = 5.84599e-09
DICPCG:  Solving for p, Initial residual = 1.04205e-05, Final residual = 9.50875e-07, No Iterations 7
time step continuity errors : sum local = 2.4652e-11, global = -3.62923e-12, cumulative = 5.84236e-09
ExecutionTime = 1.11 s  ClockTime = 6 s

Time = 0.035

Courant Number mean: 0.00508311 max: 0.0120326
smoothSolver:  Solving for Ux, Initial residual = 0.00522622, Final residual = 3.33245e-06, No Iterations 3
smoothSolver:  Solving for Uy, Initial residual = 0.0053637, Final residual = 3.46667e-06, No Iterations 3
DICPCG:  Solving for p, Initial residual = 0.00042404, Final residual = 1.09191e-05, No Iterations 79
time step continuity errors : sum local = 2.83048e-10, global = 9.79059e-13, cumulative = 5.84334e-09
DICPCG:  Solving for p, Initial residual = 6.87609e-05, Final residual = 1.9724e-06, No Iterations 80
time step continuity errors : sum local = 5.0313e-11, global = 4.14626e-13, cumulative = 5.84375e-09
DICPCG:  Solving for p, Initial residual = 9.77387e-06, Final residual = 9.12468e-07, No Iterations 7
time step continuity errors : sum local = 2.34423e-11, global = -3.45748e-12, cumulative = 5.8403e-09
ExecutionTime = 1.12 s  ClockTime = 6 s

Time = 0.036

Courant Number mean: 0.00508401 max: 0.0120506
smoothSolver:  Solving for Ux, Initial residual = 0.00504874, Final residual = 3.22216e-06, No Iterations 3
smoothSolver:  Solving for Uy, Initial residual = 0.00516525, Final residual = 3.34251e-06, No Iterations 3
DICPCG:  Solving for p, Initial residual = 0.000389476, Final residual = 1.04402e-05, No Iterations 79
time step continuity errors : sum local = 2.68191e-10, global = 9.64723e-13, cumulative = 5.84126e-09
DICPCG:  Solving for p, Initial residual = 6.59041e-05, Final residual = 1.86926e-06, No Iterations 80
time step continuity errors : sum local = 4.72816e-11, global = 3.66023e-13, cumulative = 5.84163e-09
DICPCG:  Solving for p, Initial residual = 9.19481e-06, Final residual = 8.80049e-07, No Iterations 7
time step continuity errors : sum local = 2.24134e-11, global = -3.2913e-12, cumulative = 5.83834e-09
ExecutionTime = 1.14 s  ClockTime = 6 s

Time = 0.037

Courant Number mean: 0.00508489 max: 0.0120673
smoothSolver:  Solving for Ux, Initial residual = 0.00487998, Final residual = 3.1171e-06, No Iterations 3
smoothSolver:  Solving for Uy, Initial residual = 0.00497811, Final residual = 3.22515e-06, No Iterations 3
DICPCG:  Solving for p, Initial residual = 0.000358529, Final residual = 9.98461e-06, No Iterations 79
time step continuity errors : sum local = 2.54268e-10, global = 9.32858e-13, cumulative = 5.83927e-09
DICPCG:  Solving for p, Initial residual = 6.33487e-05, Final residual = 1.78326e-06, No Iterations 80
time step continuity errors : sum local = 4.47427e-11, global = 3.30042e-13, cumulative = 5.8396e-09
DICPCG:  Solving for p, Initial residual = 8.67522e-06, Final residual = 8.45433e-07, No Iterations 7
time step continuity errors : sum local = 2.13527e-11, global = -3.14168e-12, cumulative = 5.83646e-09
ExecutionTime = 1.16 s  ClockTime = 6 s

Time = 0.038

Courant Number mean: 0.00508575 max: 0.0120828
smoothSolver:  Solving for Ux, Initial residual = 0.00471915, Final residual = 3.01679e-06, No Iterations 3
smoothSolver:  Solving for Uy, Initial residual = 0.00480128, Final residual = 3.11402e-06, No Iterations 3
DICPCG:  Solving for p, Initial residual = 0.000330473, Final residual = 9.55602e-06, No Iterations 79
time step continuity errors : sum local = 2.41333e-10, global = 9.04438e-13, cumulative = 5.83736e-09
DICPCG:  Solving for p, Initial residual = 6.0963e-05, Final residual = 1.6954e-06, No Iterations 80
time step continuity errors : sum local = 4.22084e-11, global = 2.9362e-13, cumulative = 5.83765e-09
DICPCG:  Solving for p, Initial residual = 8.20633e-06, Final residual = 9.89033e-07, No Iterations 6
time step continuity errors : sum local = 2.47799e-11, global = -3.08492e-12, cumulative = 5.83457e-09
ExecutionTime = 1.18 s  ClockTime = 6 s

Time = 0.039

Courant Number mean: 0.00508659 max: 0.0120973
smoothSolver:  Solving for Ux, Initial residual = 0.00456328, Final residual = 2.91941e-06, No Iterations 3
smoothSolver:  Solving for Uy, Initial residual = 0.00463402, Final residual = 3.00866e-06, No Iterations 3
DICPCG:  Solving for p, Initial residual = 0.000305019, Final residual = 9.15991e-06, No Iterations 79
time step continuity errors : sum local = 2.29484e-10, global = 8.74795e-13, cumulative = 5.83544e-09
DICPCG:  Solving for p, Initial residual = 5.86648e-05, Final residual = 1.64126e-06, No Iterations 80
time step continuity errors : sum local = 4.05559e-11, global = 2.77353e-13, cumulative = 5.83572e-09
DICPCG:  Solving for p, Initial residual = 7.79919e-06, Final residual = 9.83529e-07, No Iterations 5
time step continuity errors : sum local = 2.44526e-11, global = -3.30289e-12, cumulative = 5.83242e-09
ExecutionTime = 1.19 s  ClockTime = 6 s

Time = 0.04

Courant Number mean: 0.00508741 max: 0.0121108
smoothSolver:  Solving for Ux, Initial residual = 0.00441241, Final residual = 2.82503e-06, No Iterations 3
smoothSolver:  Solving for Uy, Initial residual = 0.00447545, Final residual = 2.9086e-06, No Iterations 3
DICPCG:  Solving for p, Initial residual = 0.000283109, Final residual = 8.79799e-06, No Iterations 79
time step continuity errors : sum local = 2.18725e-10, global = 8.72443e-13, cumulative = 5.83329e-09
DICPCG:  Solving for p, Initial residual = 5.63427e-05, Final residual = 1.59545e-06, No Iterations 80
time step continuity errors : sum local = 3.9141e-11, global = 2.66133e-13, cumulative = 5.83356e-09
DICPCG:  Solving for p, Initial residual = 7.43062e-06, Final residual = 9.681e-07, No Iterations 5
time step continuity errors : sum local = 2.38909e-11, global = -3.15841e-12, cumulative = 5.8304e-09
ExecutionTime = 1.21 s  ClockTime = 6 s

Time = 0.041

Courant Number mean: 0.0050882 max: 0.0121234
smoothSolver:  Solving for Ux, Initial residual = 0.00426851, Final residual = 2.73491e-06, No Iterations 3
smoothSolver:  Solving for Uy, Initial residual = 0.00432481, Final residual = 2.81335e-06, No Iterations 3
DICPCG:  Solving for p, Initial residual = 0.000262477, Final residual = 8.45775e-06, No Iterations 79
time step continuity errors : sum local = 2.08714e-10, global = 8.51301e-13, cumulative = 5.83125e-09
DICPCG:  Solving for p, Initial residual = 5.45162e-05, Final residual = 1.50685e-06, No Iterations 80
time step continuity errors : sum local = 3.67119e-11, global = 2.2814e-13, cumulative = 5.83148e-09
DICPCG:  Solving for p, Initial residual = 7.08588e-06, Final residual = 9.2952e-07, No Iterations 5
time step continuity errors : sum local = 2.27755e-11, global = -3.01524e-12, cumulative = 5.82846e-09
ExecutionTime = 1.23 s  ClockTime = 6 s

Time = 0.042

Courant Number mean: 0.00508898 max: 0.0121352
smoothSolver:  Solving for Ux, Initial residual = 0.00413116, Final residual = 2.6488e-06, No Iterations 3
smoothSolver:  Solving for Uy, Initial residual = 0.00418175, Final residual = 2.72273e-06, No Iterations 3
DICPCG:  Solving for p, Initial residual = 0.000244045, Final residual = 8.13358e-06, No Iterations 79
time step continuity errors : sum local = 1.99286e-10, global = 8.4322e-13, cumulative = 5.82931e-09
DICPCG:  Solving for p, Initial residual = 5.27035e-05, Final residual = 1.43319e-06, No Iterations 80
time step continuity errors : sum local = 3.4684e-11, global = 1.99539e-13, cumulative = 5.82951e-09
DICPCG:  Solving for p, Initial residual = 6.76988e-06, Final residual = 9.80351e-07, No Iterations 4
time step continuity errors : sum local = 2.38561e-11, global = -3.16013e-12, cumulative = 5.82635e-09
ExecutionTime = 1.24 s  ClockTime = 6 s

Time = 0.043

Courant Number mean: 0.00508973 max: 0.0121462
smoothSolver:  Solving for Ux, Initial residual = 0.00399993, Final residual = 2.56647e-06, No Iterations 3
smoothSolver:  Solving for Uy, Initial residual = 0.00404567, Final residual = 2.63638e-06, No Iterations 3
DICPCG:  Solving for p, Initial residual = 0.000227418, Final residual = 7.81191e-06, No Iterations 79
time step continuity errors : sum local = 1.90092e-10, global = 8.49827e-13, cumulative = 5.8272e-09
DICPCG:  Solving for p, Initial residual = 5.09074e-05, Final residual = 1.40434e-06, No Iterations 80
time step continuity errors : sum local = 3.37669e-11, global = 1.9889e-13, cumulative = 5.82739e-09
DICPCG:  Solving for p, Initial residual = 6.47766e-06, Final residual = 9.86859e-07, No Iterations 4
time step continuity errors : sum local = 2.38554e-11, global = -3.03076e-12, cumulative = 5.82436e-09
ExecutionTime = 1.26 s  ClockTime = 6 s

Time = 0.044

Courant Number mean: 0.00509047 max: 0.0121565
smoothSolver:  Solving for Ux, Initial residual = 0.00387452, Final residual = 2.48769e-06, No Iterations 3
smoothSolver:  Solving for Uy, Initial residual = 0.00391596, Final residual = 2.55393e-06, No Iterations 3
DICPCG:  Solving for p, Initial residual = 0.000212388, Final residual = 7.52147e-06, No Iterations 79
time step continuity errors : sum local = 1.81814e-10, global = 8.30256e-13, cumulative = 5.82519e-09
DICPCG:  Solving for p, Initial residual = 4.92852e-05, Final residual = 1.34335e-06, No Iterations 80
time step continuity errors : sum local = 3.20997e-11, global = 1.75884e-13, cumulative = 5.82537e-09
DICPCG:  Solving for p, Initial residual = 6.20838e-06, Final residual = 9.56146e-07, No Iterations 4
time step continuity errors : sum local = 2.29652e-11, global = -2.90158e-12, cumulative = 5.82247e-09
ExecutionTime = 1.28 s  ClockTime = 6 s

Time = 0.045

Courant Number mean: 0.00509119 max: 0.0121662
smoothSolver:  Solving for Ux, Initial residual = 0.00375455, Final residual = 2.41222e-06, No Iterations 3
smoothSolver:  Solving for Uy, Initial residual = 0.00379231, Final residual = 2.4752e-06, No Iterations 3
DICPCG:  Solving for p, Initial residual = 0.000198734, Final residual = 7.22609e-06, No Iterations 79
time step continuity errors : sum local = 1.7356e-10, global = 8.26075e-13, cumulative = 5.82329e-09
DICPCG:  Solving for p, Initial residual = 4.77118e-05, Final residual = 1.27622e-06, No Iterations 80
time step continuity errors : sum local = 3.03125e-11, global = 1.50272e-13, cumulative = 5.82344e-09
DICPCG:  Solving for p, Initial residual = 5.95431e-06, Final residual = 9.13986e-07, No Iterations 4
time step continuity errors : sum local = 2.18172e-11, global = -2.77719e-12, cumulative = 5.82067e-09
ExecutionTime = 1.3 s  ClockTime = 6 s

Time = 0.046

Courant Number mean: 0.00509189 max: 0.0121753
smoothSolver:  Solving for Ux, Initial residual = 0.00363966, Final residual = 2.34142e-06, No Iterations 3
smoothSolver:  Solving for Uy, Initial residual = 0.00367426, Final residual = 2.39993e-06, No Iterations 3
DICPCG:  Solving for p, Initial residual = 0.000186307, Final residual = 6.93977e-06, No Iterations 79
time step continuity errors : sum local = 1.65656e-10, global = 8.15693e-13, cumulative = 5.82148e-09
DICPCG:  Solving for p, Initial residual = 4.61981e-05, Final residual = 1.21883e-06, No Iterations 80
time step continuity errors : sum local = 2.87814e-11, global = 1.29666e-13, cumulative = 5.82161e-09
DICPCG:  Solving for p, Initial residual = 5.72247e-06, Final residual = 8.79838e-07, No Iterations 4
time step continuity errors : sum local = 2.08771e-11, global = -2.66172e-12, cumulative = 5.81895e-09
ExecutionTime = 1.31 s  ClockTime = 6 s

Time = 0.047

Courant Number mean: 0.00509257 max: 0.0121839
smoothSolver:  Solving for Ux, Initial residual = 0.00352958, Final residual = 2.27471e-06, No Iterations 3
smoothSolver:  Solving for Uy, Initial residual = 0.00356146, Final residual = 2.32789e-06, No Iterations 3
DICPCG:  Solving for p, Initial residual = 0.00017491, Final residual = 6.65849e-06, No Iterations 79
time step continuity errors : sum local = 1.57996e-10, global = 8.02023e-13, cumulative = 5.81975e-09
DICPCG:  Solving for p, Initial residual = 4.47857e-05, Final residual = 1.16782e-06, No Iterations 80
time step continuity errors : sum local = 2.74225e-11, global = 1.12239e-13, cumulative = 5.81987e-09
DICPCG:  Solving for p, Initial residual = 5.50913e-06, Final residual = 9.98166e-07, No Iterations 3
time step continuity errors : sum local = 2.35483e-11, global = -2.68215e-12, cumulative = 5.81718e-09
ExecutionTime = 1.33 s  ClockTime = 6 s

Time = 0.048

Courant Number mean: 0.00509324 max: 0.0121919
smoothSolver:  Solving for Ux, Initial residual = 0.00342871, Final residual = 2.21176e-06, No Iterations 3
smoothSolver:  Solving for Uy, Initial residual = 0.00345352, Final residual = 2.25887e-06, No Iterations 3
DICPCG:  Solving for p, Initial residual = 0.000164733, Final residual = 6.32503e-06, No Iterations 79
time step continuity errors : sum local = 1.4922e-10, global = 7.81756e-13, cumulative = 5.81797e-09
DICPCG:  Solving for p, Initial residual = 4.36799e-05, Final residual = 1.16244e-06, No Iterations 80
time step continuity errors : sum local = 2.71474e-11, global = 1.24609e-13, cumulative = 5.81809e-09
DICPCG:  Solving for p, Initial residual = 5.2917e-06, Final residual = 8.64366e-07, No Iterations 4
time step continuity errors : sum local = 2.0278e-11, global = -2.45641e-12, cumulative = 5.81563e-09
ExecutionTime = 1.34 s  ClockTime = 6 s

Time = 0.049

Courant Number mean: 0.0050939 max: 0.0121995
smoothSolver:  Solving for Ux, Initial residual = 0.00333325, Final residual = 2.15115e-06, No Iterations 3
smoothSolver:  Solving for Uy, Initial residual = 0.00335045, Final residual = 2.19287e-06, No Iterations 3
DICPCG:  Solving for p, Initial residual = 0.000155374, Final residual = 6.14233e-06, No Iterations 79
time step continuity errors : sum local = 1.44102e-10, global = 7.57608e-13, cumulative = 5.81639e-09
DICPCG:  Solving for p, Initial residual = 4.20383e-05, Final residual = 1.07529e-06, No Iterations 80
time step continuity errors : sum local = 2.49803e-11, global = 7.89443e-14, cumulative = 5.81647e-09
DICPCG:  Solving for p, Initial residual = 5.1321e-06, Final residual = 9.22046e-07, No Iterations 3
time step continuity errors : sum local = 2.15144e-11, global = -2.4854e-12, cumulative = 5.81398e-09
ExecutionTime = 1.36 s  ClockTime = 6 s

Time = 0.05

Courant Number mean: 0.00509454 max: 0.0122066
smoothSolver:  Solving for Ux, Initial residual = 0.00324136, Final residual = 2.09275e-06, No Iterations 3
smoothSolver:  Solving for Uy, Initial residual = 0.00325124, Final residual = 2.12926e-06, No Iterations 3
DICPCG:  Solving for p, Initial residual = 0.000146653, Final residual = 5.80039e-06, No Iterations 79
time step continuity errors : sum local = 1.35346e-10, global = 7.31233e-13, cumulative = 5.81472e-09
DICPCG:  Solving for p, Initial residual = 4.11028e-05, Final residual = 1.06075e-06, No Iterations 80
time step continuity errors : sum local = 2.45168e-11, global = 8.75384e-14, cumulative = 5.8148e-09
DICPCG:  Solving for p, Initial residual = 4.91949e-06, Final residual = 9.18631e-07, No Iterations 3
time step continuity errors : sum local = 2.13226e-11, global = -2.38708e-12, cumulative = 5.81242e-09
ExecutionTime = 1.38 s  ClockTime = 6 s

Time = 0.051

Courant Number mean: 0.00509516 max: 0.0122134
smoothSolver:  Solving for Ux, Initial residual = 0.0031528, Final residual = 2.03647e-06, No Iterations 3
smoothSolver:  Solving for Uy, Initial residual = 0.0031563, Final residual = 2.06831e-06, No Iterations 3
DICPCG:  Solving for p, Initial residual = 0.000138532, Final residual = 5.59879e-06, No Iterations 79
time step continuity errors : sum local = 1.29959e-10, global = 6.91366e-13, cumulative = 5.81311e-09
DICPCG:  Solving for p, Initial residual = 3.98084e-05, Final residual = 1.04562e-06, No Iterations 80
time step continuity errors : sum local = 2.40481e-11, global = 8.39585e-14, cumulative = 5.81319e-09
DICPCG:  Solving for p, Initial residual = 4.77053e-06, Final residual = 9.11777e-07, No Iterations 3
time step continuity errors : sum local = 2.10563e-11, global = -2.30335e-12, cumulative = 5.81089e-09
ExecutionTime = 1.39 s  ClockTime = 6 s

Time = 0.052

Courant Number mean: 0.00509577 max: 0.0122198
smoothSolver:  Solving for Ux, Initial residual = 0.00306747, Final residual = 1.98217e-06, No Iterations 3
smoothSolver:  Solving for Uy, Initial residual = 0.00306522, Final residual = 2.00977e-06, No Iterations 3
DICPCG:  Solving for p, Initial residual = 0.00013124, Final residual = 5.3758e-06, No Iterations 79
time step continuity errors : sum local = 1.24151e-10, global = 6.65528e-13, cumulative = 5.81155e-09
DICPCG:  Solving for p, Initial residual = 3.86496e-05, Final residual = 1.93082e-06, No Iterations 79
time step continuity errors : sum local = 4.41926e-11, global = -1.76585e-13, cumulative = 5.81138e-09
DICPCG:  Solving for p, Initial residual = 6.15205e-06, Final residual = 8.44592e-07, No Iterations 4
time step continuity errors : sum local = 1.94089e-11, global = -2.09678e-12, cumulative = 5.80928e-09
ExecutionTime = 1.41 s  ClockTime = 6 s

Time = 0.053

Courant Number mean: 0.00509636 max: 0.0122258
smoothSolver:  Solving for Ux, Initial residual = 0.00298519, Final residual = 1.92976e-06, No Iterations 3
smoothSolver:  Solving for Uy, Initial residual = 0.00297805, Final residual = 1.95369e-06, No Iterations 3
DICPCG:  Solving for p, Initial residual = 0.000125093, Final residual = 5.20886e-06, No Iterations 79
time step continuity errors : sum local = 1.19704e-10, global = 6.35117e-13, cumulative = 5.80992e-09
DICPCG:  Solving for p, Initial residual = 3.70879e-05, Final residual = 1.84782e-06, No Iterations 79
time step continuity errors : sum local = 4.20962e-11, global = -2.00113e-13, cumulative = 5.80972e-09
DICPCG:  Solving for p, Initial residual = 5.97043e-06, Final residual = 9.57294e-07, No Iterations 3
time step continuity errors : sum local = 2.18938e-11, global = -2.22165e-12, cumulative = 5.80749e-09
ExecutionTime = 1.42 s  ClockTime = 6 s

Time = 0.054

Courant Number mean: 0.00509695 max: 0.0122315
smoothSolver:  Solving for Ux, Initial residual = 0.00290578, Final residual = 1.87914e-06, No Iterations 3
smoothSolver:  Solving for Uy, Initial residual = 0.00289369, Final residual = 1.89933e-06, No Iterations 3
DICPCG:  Solving for p, Initial residual = 0.000118801, Final residual = 4.97145e-06, No Iterations 79
time step continuity errors : sum local = 1.13703e-10, global = 6.16241e-13, cumulative = 5.80811e-09
DICPCG:  Solving for p, Initial residual = 3.63749e-05, Final residual = 1.77172e-06, No Iterations 79
time step continuity errors : sum local = 4.01801e-11, global = -1.77855e-13, cumulative = 5.80793e-09
DICPCG:  Solving for p, Initial residual = 5.73342e-06, Final residual = 9.5962e-07, No Iterations 3
time step continuity errors : sum local = 2.18454e-11, global = -2.13455e-12, cumulative = 5.8058e-09
ExecutionTime = 1.44 s  ClockTime = 6 s

Time = 0.055

Courant Number mean: 0.00509751 max: 0.0122369
smoothSolver:  Solving for Ux, Initial residual = 0.0028291, Final residual = 1.83023e-06, No Iterations 3
smoothSolver:  Solving for Uy, Initial residual = 0.00281284, Final residual = 1.8472e-06, No Iterations 3
DICPCG:  Solving for p, Initial residual = 0.000112864, Final residual = 4.83717e-06, No Iterations 79
time step continuity errors : sum local = 1.1012e-10, global = 5.91914e-13, cumulative = 5.80639e-09
DICPCG:  Solving for p, Initial residual = 3.52912e-05, Final residual = 1.73184e-06, No Iterations 79
time step continuity errors : sum local = 3.91029e-11, global = -1.6366e-13, cumulative = 5.80623e-09
DICPCG:  Solving for p, Initial residual = 5.58327e-06, Final residual = 9.65915e-07, No Iterations 3
time step continuity errors : sum local = 2.18898e-11, global = -2.06699e-12, cumulative = 5.80416e-09
ExecutionTime = 1.46 s  ClockTime = 6 s

Time = 0.056

Courant Number mean: 0.00509807 max: 0.0122421
smoothSolver:  Solving for Ux, Initial residual = 0.00275503, Final residual = 1.78295e-06, No Iterations 3
smoothSolver:  Solving for Uy, Initial residual = 0.00273501, Final residual = 1.79696e-06, No Iterations 3
DICPCG:  Solving for p, Initial residual = 0.000107591, Final residual = 4.6836e-06, No Iterations 79
time step continuity errors : sum local = 1.06144e-10, global = 5.88547e-13, cumulative = 5.80475e-09
DICPCG:  Solving for p, Initial residual = 3.43313e-05, Final residual = 1.66478e-06, No Iterations 79
time step continuity errors : sum local = 3.74282e-11, global = -1.55136e-13, cumulative = 5.80459e-09
DICPCG:  Solving for p, Initial residual = 5.40231e-06, Final residual = 9.36823e-07, No Iterations 3
time step continuity errors : sum local = 2.11375e-11, global = -2.00065e-12, cumulative = 5.80259e-09
ExecutionTime = 1.48 s  ClockTime = 6 s

Time = 0.057

Courant Number mean: 0.00509861 max: 0.0122469
smoothSolver:  Solving for Ux, Initial residual = 0.00268345, Final residual = 1.73721e-06, No Iterations 3
smoothSolver:  Solving for Uy, Initial residual = 0.00266003, Final residual = 1.74852e-06, No Iterations 3
DICPCG:  Solving for p, Initial residual = 0.000102668, Final residual = 4.54256e-06, No Iterations 79
time step continuity errors : sum local = 1.02497e-10, global = 5.89642e-13, cumulative = 5.80318e-09
DICPCG:  Solving for p, Initial residual = 3.34168e-05, Final residual = 1.59205e-06, No Iterations 79
time step continuity errors : sum local = 3.56446e-11, global = -1.46115e-13, cumulative = 5.80304e-09
DICPCG:  Solving for p, Initial residual = 5.22132e-06, Final residual = 8.97346e-07, No Iterations 3
time step continuity errors : sum local = 2.0161e-11, global = -1.93735e-12, cumulative = 5.8011e-09
ExecutionTime = 1.5 s  ClockTime = 6 s

Time = 0.058

Courant Number mean: 0.00509914 max: 0.0122516
smoothSolver:  Solving for Ux, Initial residual = 0.00261424, Final residual = 1.69297e-06, No Iterations 3
smoothSolver:  Solving for Uy, Initial residual = 0.00258779, Final residual = 1.70181e-06, No Iterations 3
DICPCG:  Solving for p, Initial residual = 9.8088e-05, Final residual = 4.40262e-06, No Iterations 79
time step continuity errors : sum local = 9.89181e-11, global = 5.93849e-13, cumulative = 5.80169e-09
DICPCG:  Solving for p, Initial residual = 3.25331e-05, Final residual = 1.5245e-06, No Iterations 79
time step continuity errors : sum local = 3.39944e-11, global = -1.3382e-13, cumulative = 5.80156e-09
DICPCG:  Solving for p, Initial residual = 5.04767e-06, Final residual = 8.60219e-07, No Iterations 3
time step continuity errors : sum local = 1.9247e-11, global = -1.87726e-12, cumulative = 5.79968e-09
ExecutionTime = 1.52 s  ClockTime = 6 s

Time = 0.059

Courant Number mean: 0.00509966 max: 0.012256
smoothSolver:  Solving for Ux, Initial residual = 0.00254731, Final residual = 1.65015e-06, No Iterations 3
smoothSolver:  Solving for Uy, Initial residual = 0.00251815, Final residual = 1.65674e-06, No Iterations 3
DICPCG:  Solving for p, Initial residual = 9.38263e-05, Final residual = 4.26477e-06, No Iterations 79
time step continuity errors : sum local = 9.54251e-11, global = 5.95459e-13, cumulative = 5.80028e-09
DICPCG:  Solving for p, Initial residual = 3.16745e-05, Final residual = 1.46724e-06, No Iterations 79
time step continuity errors : sum local = 3.25892e-11, global = -1.19556e-13, cumulative = 5.80016e-09
DICPCG:  Solving for p, Initial residual = 4.88591e-06, Final residual = 8.30128e-07, No Iterations 3
time step continuity errors : sum local = 1.8499e-11, global = -1.81938e-12, cumulative = 5.79834e-09
ExecutionTime = 1.54 s  ClockTime = 6 s

Time = 0.06

Courant Number mean: 0.00510017 max: 0.0122601
smoothSolver:  Solving for Ux, Initial residual = 0.00248254, Final residual = 1.60868e-06, No Iterations 3
smoothSolver:  Solving for Uy, Initial residual = 0.00245097, Final residual = 1.61323e-06, No Iterations 3
DICPCG:  Solving for p, Initial residual = 8.98934e-05, Final residual = 4.12668e-06, No Iterations 79
time step continuity errors : sum local = 9.19642e-11, global = 5.92697e-13, cumulative = 5.79893e-09
DICPCG:  Solving for p, Initial residual = 3.08475e-05, Final residual = 1.41926e-06, No Iterations 79
time step continuity errors : sum local = 3.1403e-11, global = -1.06674e-13, cumulative = 5.79882e-09
DICPCG:  Solving for p, Initial residual = 4.73498e-06, Final residual = 8.04726e-07, No Iterations 3
time step continuity errors : sum local = 1.78628e-11, global = -1.76421e-12, cumulative = 5.79706e-09
ExecutionTime = 1.55 s  ClockTime = 6 s

Time = 0.061

Courant Number mean: 0.00510067 max: 0.0122641
smoothSolver:  Solving for Ux, Initial residual = 0.00241985, Final residual = 1.56853e-06, No Iterations 3
smoothSolver:  Solving for Uy, Initial residual = 0.00238613, Final residual = 1.5712e-06, No Iterations 3
DICPCG:  Solving for p, Initial residual = 8.63441e-05, Final residual = 3.98961e-06, No Iterations 79
time step continuity errors : sum local = 8.85622e-11, global = 5.84516e-13, cumulative = 5.79764e-09
DICPCG:  Solving for p, Initial residual = 3.00525e-05, Final residual = 1.37757e-06, No Iterations 79
time step continuity errors : sum local = 3.03668e-11, global = -9.62572e-14, cumulative = 5.79755e-09
DICPCG:  Solving for p, Initial residual = 4.59324e-06, Final residual = 7.81274e-07, No Iterations 3
time step continuity errors : sum local = 1.72762e-11, global = -1.71093e-12, cumulative = 5.79584e-09
ExecutionTime = 1.57 s  ClockTime = 6 s

Time = 0.062

Courant Number mean: 0.00510116 max: 0.0122679
smoothSolver:  Solving for Ux, Initial residual = 0.00235914, Final residual = 1.52962e-06, No Iterations 3
smoothSolver:  Solving for Uy, Initial residual = 0.00232351, Final residual = 1.53058e-06, No Iterations 3
DICPCG:  Solving for p, Initial residual = 8.3065e-05, Final residual = 3.85503e-06, No Iterations 79
time step continuity errors : sum local = 8.5249e-11, global = 5.71627e-13, cumulative = 5.79641e-09
DICPCG:  Solving for p, Initial residual = 2.92776e-05, Final residual = 1.33956e-06, No Iterations 79
time step continuity errors : sum local = 2.9422e-11, global = -8.87494e-14, cumulative = 5.79632e-09
DICPCG:  Solving for p, Initial residual = 4.45889e-06, Final residual = 7.5824e-07, No Iterations 3
time step continuity errors : sum local = 1.67048e-11, global = -1.65996e-12, cumulative = 5.79466e-09
ExecutionTime = 1.59 s  ClockTime = 6 s

Time = 0.063

Courant Number mean: 0.00510163 max: 0.0122715
smoothSolver:  Solving for Ux, Initial residual = 0.00230033, Final residual = 1.4919e-06, No Iterations 3
smoothSolver:  Solving for Uy, Initial residual = 0.00226302, Final residual = 1.4913e-06, No Iterations 3
DICPCG:  Solving for p, Initial residual = 8.00026e-05, Final residual = 3.72556e-06, No Iterations 79
time step continuity errors : sum local = 8.20807e-11, global = 5.5538e-13, cumulative = 5.79521e-09
DICPCG:  Solving for p, Initial residual = 2.85249e-05, Final residual = 1.30442e-06, No Iterations 79
time step continuity errors : sum local = 2.8549e-11, global = -8.33921e-14, cumulative = 5.79513e-09
DICPCG:  Solving for p, Initial residual = 4.3319e-06, Final residual = 7.35604e-07, No Iterations 3
time step continuity errors : sum local = 1.61476e-11, global = -1.61104e-12, cumulative = 5.79352e-09
ExecutionTime = 1.6 s  ClockTime = 6 s

Time = 0.064

Courant Number mean: 0.0051021 max: 0.012275
smoothSolver:  Solving for Ux, Initial residual = 0.00224334, Final residual = 1.45533e-06, No Iterations 3
smoothSolver:  Solving for Uy, Initial residual = 0.00220456, Final residual = 1.45332e-06, No Iterations 3
DICPCG:  Solving for p, Initial residual = 7.71331e-05, Final residual = 3.60271e-06, No Iterations 79
time step continuity errors : sum local = 7.90877e-11, global = 5.37047e-13, cumulative = 5.79406e-09
DICPCG:  Solving for p, Initial residual = 2.77983e-05, Final residual = 1.27148e-06, No Iterations 79
time step continuity errors : sum local = 2.77324e-11, global = -7.94505e-14, cumulative = 5.79398e-09
DICPCG:  Solving for p, Initial residual = 4.21336e-06, Final residual = 7.13709e-07, No Iterations 3
time step continuity errors : sum local = 1.56119e-11, global = -1.56407e-12, cumulative = 5.79241e-09
ExecutionTime = 1.62 s  ClockTime = 7 s

Time = 0.065

Courant Number mean: 0.00510255 max: 0.0122783
smoothSolver:  Solving for Ux, Initial residual = 0.0021881, Final residual = 1.41986e-06, No Iterations 3
smoothSolver:  Solving for Uy, Initial residual = 0.00214802, Final residual = 1.41656e-06, No Iterations 3
DICPCG:  Solving for p, Initial residual = 7.44624e-05, Final residual = 3.48708e-06, No Iterations 79
time step continuity errors : sum local = 7.62797e-11, global = 5.17832e-13, cumulative = 5.79293e-09
DICPCG:  Solving for p, Initial residual = 2.70954e-05, Final residual = 1.24062e-06, No Iterations 79
time step continuity errors : sum local = 2.69684e-11, global = -7.63606e-14, cumulative = 5.79285e-09
DICPCG:  Solving for p, Initial residual = 4.10112e-06, Final residual = 9.91167e-07, No Iterations 2
time step continuity errors : sum local = 2.16067e-11, global = -1.55243e-12, cumulative = 5.7913e-09
ExecutionTime = 1.63 s  ClockTime = 7 s

Time = 0.066

Courant Number mean: 0.005103 max: 0.0122814
smoothSolver:  Solving for Ux, Initial residual = 0.00213453, Final residual = 1.38545e-06, No Iterations 3
smoothSolver:  Solving for Uy, Initial residual = 0.00209338, Final residual = 1.38101e-06, No Iterations 3
DICPCG:  Solving for p, Initial residual = 7.2115e-05, Final residual = 3.31909e-06, No Iterations 79
time step continuity errors : sum local = 7.2356e-11, global = 4.51572e-13, cumulative = 5.79175e-09
DICPCG:  Solving for p, Initial residual = 2.67455e-05, Final residual = 1.24563e-06, No Iterations 79
time step continuity errors : sum local = 2.6989e-11, global = -3.92403e-14, cumulative = 5.79171e-09
DICPCG:  Solving for p, Initial residual = 4.00688e-06, Final residual = 7.59004e-07, No Iterations 3
time step continuity errors : sum local = 1.64904e-11, global = -1.45988e-12, cumulative = 5.79026e-09
ExecutionTime = 1.65 s  ClockTime = 7 s

Time = 0.067

Courant Number mean: 0.00510344 max: 0.0122844
smoothSolver:  Solving for Ux, Initial residual = 0.00208257, Final residual = 1.35205e-06, No Iterations 3
smoothSolver:  Solving for Uy, Initial residual = 0.00204061, Final residual = 1.34666e-06, No Iterations 3
DICPCG:  Solving for p, Initial residual = 7.01944e-05, Final residual = 3.31227e-06, No Iterations 79
time step continuity errors : sum local = 7.19662e-11, global = 4.90812e-13, cumulative = 5.79075e-09
DICPCG:  Solving for p, Initial residual = 2.56652e-05, Final residual = 1.20641e-06, No Iterations 79
time step continuity errors : sum local = 2.60555e-11, global = -7.21164e-14, cumulative = 5.79067e-09
DICPCG:  Solving for p, Initial residual = 3.92591e-06, Final residual = 9.6364e-07, No Iterations 2
time step continuity errors : sum local = 2.08682e-11, global = -1.47285e-12, cumulative = 5.7892e-09
ExecutionTime = 1.67 s  ClockTime = 7 s

Time = 0.068

Courant Number mean: 0.00510386 max: 0.0122873
smoothSolver:  Solving for Ux, Initial residual = 0.00203215, Final residual = 1.31964e-06, No Iterations 3
smoothSolver:  Solving for Uy, Initial residual = 0.0019892, Final residual = 1.31317e-06, No Iterations 3
DICPCG:  Solving for p, Initial residual = 6.75187e-05, Final residual = 3.12708e-06, No Iterations 79
time step continuity errors : sum local = 6.77213e-11, global = 4.12773e-13, cumulative = 5.78961e-09
DICPCG:  Solving for p, Initial residual = 2.54468e-05, Final residual = 1.18911e-06, No Iterations 79
time step continuity errors : sum local = 2.5602e-11, global = -3.65015e-14, cumulative = 5.78958e-09
DICPCG:  Solving for p, Initial residual = 3.80966e-06, Final residual = 9.61323e-07, No Iterations 2
time step continuity errors : sum local = 2.07519e-11, global = -1.38581e-12, cumulative = 5.78819e-09
ExecutionTime = 1.68 s  ClockTime = 7 s

Time = 0.069

Courant Number mean: 0.00510428 max: 0.01229
smoothSolver:  Solving for Ux, Initial residual = 0.00198322, Final residual = 1.28816e-06, No Iterations 3
smoothSolver:  Solving for Uy, Initial residual = 0.00193954, Final residual = 1.2808e-06, No Iterations 3
DICPCG:  Solving for p, Initial residual = 6.51692e-05, Final residual = 3.08888e-06, No Iterations 79
time step continuity errors : sum local = 6.66811e-11, global = 4.0711e-13, cumulative = 5.7886e-09
DICPCG:  Solving for p, Initial residual = 2.47198e-05, Final residual = 1.20495e-06, No Iterations 79
time step continuity errors : sum local = 2.58644e-11, global = -2.7386e-14, cumulative = 5.78857e-09
DICPCG:  Solving for p, Initial residual = 3.77476e-06, Final residual = 9.8927e-07, No Iterations 2
time step continuity errors : sum local = 2.12889e-11, global = -1.35034e-12, cumulative = 5.78722e-09
ExecutionTime = 1.7 s  ClockTime = 7 s

Time = 0.07

Courant Number mean: 0.00510469 max: 0.0122926
smoothSolver:  Solving for Ux, Initial residual = 0.00193572, Final residual = 1.25758e-06, No Iterations 3
smoothSolver:  Solving for Uy, Initial residual = 0.00189146, Final residual = 1.24944e-06, No Iterations 3
DICPCG:  Solving for p, Initial residual = 6.32602e-05, Final residual = 3.00674e-06, No Iterations 79
time step continuity errors : sum local = 6.47069e-11, global = 3.85133e-13, cumulative = 5.78761e-09
DICPCG:  Solving for p, Initial residual = 2.41387e-05, Final residual = 1.19596e-06, No Iterations 79
time step continuity errors : sum local = 2.5595e-11, global = -2.00365e-14, cumulative = 5.78759e-09
DICPCG:  Solving for p, Initial residual = 3.70306e-06, Final residual = 9.83774e-07, No Iterations 2
time step continuity errors : sum local = 2.11066e-11, global = -1.30811e-12, cumulative = 5.78628e-09
ExecutionTime = 1.72 s  ClockTime = 7 s

Time = 0.071

Courant Number mean: 0.00510509 max: 0.0122952
smoothSolver:  Solving for Ux, Initial residual = 0.00188957, Final residual = 1.22787e-06, No Iterations 3
smoothSolver:  Solving for Uy, Initial residual = 0.00184483, Final residual = 1.21901e-06, No Iterations 3
DICPCG:  Solving for p, Initial residual = 6.13635e-05, Final residual = 2.92979e-06, No Iterations 79
time step continuity errors : sum local = 6.28603e-11, global = 3.69962e-13, cumulative = 5.78665e-09
DICPCG:  Solving for p, Initial residual = 2.35573e-05, Final residual = 1.17119e-06, No Iterations 79
time step continuity errors : sum local = 2.49924e-11, global = -2.08657e-14, cumulative = 5.78663e-09
DICPCG:  Solving for p, Initial residual = 3.61745e-06, Final residual = 9.61751e-07, No Iterations 2
time step continuity errors : sum local = 2.05732e-11, global = -1.27374e-12, cumulative = 5.78535e-09
ExecutionTime = 1.73 s  ClockTime = 7 s

Time = 0.072

Courant Number mean: 0.00510548 max: 0.0122976
smoothSolver:  Solving for Ux, Initial residual = 0.00184437, Final residual = 1.19875e-06, No Iterations 3
smoothSolver:  Solving for Uy, Initial residual = 0.00179962, Final residual = 1.18949e-06, No Iterations 3
DICPCG:  Solving for p, Initial residual = 5.95582e-05, Final residual = 2.84937e-06, No Iterations 79
time step continuity errors : sum local = 6.0954e-11, global = 3.56413e-13, cumulative = 5.78571e-09
DICPCG:  Solving for p, Initial residual = 2.29897e-05, Final residual = 1.13868e-06, No Iterations 79
time step continuity errors : sum local = 2.42302e-11, global = -2.46588e-14, cumulative = 5.78568e-09
DICPCG:  Solving for p, Initial residual = 3.52355e-06, Final residual = 9.29777e-07, No Iterations 2
time step continuity errors : sum local = 1.9832e-11, global = -1.24226e-12, cumulative = 5.78444e-09
ExecutionTime = 1.75 s  ClockTime = 7 s

Time = 0.073

Courant Number mean: 0.00510586 max: 0.0122999
smoothSolver:  Solving for Ux, Initial residual = 0.00180013, Final residual = 1.17023e-06, No Iterations 3
smoothSolver:  Solving for Uy, Initial residual = 0.00175577, Final residual = 1.16084e-06, No Iterations 3
DICPCG:  Solving for p, Initial residual = 5.78295e-05, Final residual = 2.77301e-06, No Iterations 79
time step continuity errors : sum local = 5.915e-11, global = 3.43139e-13, cumulative = 5.78479e-09
DICPCG:  Solving for p, Initial residual = 2.24386e-05, Final residual = 1.10652e-06, No Iterations 79
time step continuity errors : sum local = 2.34811e-11, global = -2.856e-14, cumulative = 5.78476e-09
DICPCG:  Solving for p, Initial residual = 3.4318e-06, Final residual = 8.98828e-07, No Iterations 2
time step continuity errors : sum local = 1.91178e-11, global = -1.21193e-12, cumulative = 5.78355e-09
ExecutionTime = 1.77 s  ClockTime = 7 s

Time = 0.074

Courant Number mean: 0.00510624 max: 0.0123021
smoothSolver:  Solving for Ux, Initial residual = 0.00175715, Final residual = 1.14251e-06, No Iterations 3
smoothSolver:  Solving for Uy, Initial residual = 0.00171324, Final residual = 1.13305e-06, No Iterations 3
DICPCG:  Solving for p, Initial residual = 5.61839e-05, Final residual = 2.69952e-06, No Iterations 79
time step continuity errors : sum local = 5.74203e-11, global = 3.30176e-13, cumulative = 5.78388e-09
DICPCG:  Solving for p, Initial residual = 2.19055e-05, Final residual = 1.07787e-06, No Iterations 79
time step continuity errors : sum local = 2.28117e-11, global = -3.1422e-14, cumulative = 5.78384e-09
DICPCG:  Solving for p, Initial residual = 3.34553e-06, Final residual = 8.72069e-07, No Iterations 2
time step continuity errors : sum local = 1.84977e-11, global = -1.18227e-12, cumulative = 5.78266e-09
ExecutionTime = 1.78 s  ClockTime = 7 s

Time = 0.075

Courant Number mean: 0.00510661 max: 0.0123042
smoothSolver:  Solving for Ux, Initial residual = 0.0017154, Final residual = 1.11558e-06, No Iterations 3
smoothSolver:  Solving for Uy, Initial residual = 0.00167197, Final residual = 1.10606e-06, No Iterations 3
DICPCG:  Solving for p, Initial residual = 5.46193e-05, Final residual = 2.62962e-06, No Iterations 79
time step continuity errors : sum local = 5.57794e-11, global = 3.17139e-13, cumulative = 5.78298e-09
DICPCG:  Solving for p, Initial residual = 2.13898e-05, Final residual = 1.05307e-06, No Iterations 79
time step continuity errors : sum local = 2.22282e-11, global = -3.32061e-14, cumulative = 5.78295e-09
DICPCG:  Solving for p, Initial residual = 3.26502e-06, Final residual = 8.50047e-07, No Iterations 2
time step continuity errors : sum local = 1.79822e-11, global = -1.15311e-12, cumulative = 5.78179e-09
ExecutionTime = 1.8 s  ClockTime = 7 s

Time = 0.076

Courant Number mean: 0.00510697 max: 0.0123063
smoothSolver:  Solving for Ux, Initial residual = 0.00167483, Final residual = 1.08972e-06, No Iterations 3
smoothSolver:  Solving for Uy, Initial residual = 0.00163191, Final residual = 1.07985e-06, No Iterations 3
DICPCG:  Solving for p, Initial residual = 5.31278e-05, Final residual = 2.5619e-06, No Iterations 79
time step continuity errors : sum local = 5.4197e-11, global = 3.04383e-13, cumulative = 5.7821e-09
DICPCG:  Solving for p, Initial residual = 2.08893e-05, Final residual = 1.03086e-06, No Iterations 79
time step continuity errors : sum local = 2.17031e-11, global = -3.39182e-14, cumulative = 5.78206e-09
DICPCG:  Solving for p, Initial residual = 3.18876e-06, Final residual = 8.3101e-07, No Iterations 2
time step continuity errors : sum local = 1.75334e-11, global = -1.12413e-12, cumulative = 5.78094e-09
ExecutionTime = 1.82 s  ClockTime = 7 s

Time = 0.077

Courant Number mean: 0.00510732 max: 0.0123082
smoothSolver:  Solving for Ux, Initial residual = 0.00163628, Final residual = 1.06457e-06, No Iterations 3
smoothSolver:  Solving for Uy, Initial residual = 0.001593, Final residual = 1.05438e-06, No Iterations 3
DICPCG:  Solving for p, Initial residual = 5.1701e-05, Final residual = 2.49605e-06, No Iterations 79
time step continuity errors : sum local = 5.26657e-11, global = 2.92105e-13, cumulative = 5.78123e-09
DICPCG:  Solving for p, Initial residual = 2.04029e-05, Final residual = 1.00992e-06, No Iterations 79
time step continuity errors : sum local = 2.12092e-11, global = -3.43751e-14, cumulative = 5.7812e-09
DICPCG:  Solving for p, Initial residual = 3.11512e-06, Final residual = 8.13448e-07, No Iterations 2
time step continuity errors : sum local = 1.7119e-11, global = -1.09604e-12, cumulative = 5.7801e-09
ExecutionTime = 1.83 s  ClockTime = 7 s

Time = 0.078

Courant Number mean: 0.00510767 max: 0.0123101
smoothSolver:  Solving for Ux, Initial residual = 0.00159893, Final residual = 1.0401e-06, No Iterations 3
smoothSolver:  Solving for Uy, Initial residual = 0.00155522, Final residual = 1.02964e-06, No Iterations 3
DICPCG:  Solving for p, Initial residual = 5.03366e-05, Final residual = 2.43186e-06, No Iterations 79
time step continuity errors : sum local = 5.118e-11, global = 2.80417e-13, cumulative = 5.78038e-09
DICPCG:  Solving for p, Initial residual = 1.99291e-05, Final residual = 9.89395e-07, No Iterations 79
time step continuity errors : sum local = 2.07269e-11, global = -3.48026e-14, cumulative = 5.78035e-09
DICPCG:  Solving for p, Initial residual = 3.04297e-06, Final residual = 7.96306e-07, No Iterations 2
time step continuity errors : sum local = 1.67164e-11, global = -1.06889e-12, cumulative = 5.77928e-09
ExecutionTime = 1.85 s  ClockTime = 7 s

Time = 0.079

Courant Number mean: 0.005108 max: 0.0123119
smoothSolver:  Solving for Ux, Initial residual = 0.00156257, Final residual = 1.01628e-06, No Iterations 3
smoothSolver:  Solving for Uy, Initial residual = 0.0015185, Final residual = 1.00558e-06, No Iterations 3
DICPCG:  Solving for p, Initial residual = 4.90253e-05, Final residual = 2.36905e-06, No Iterations 79
time step continuity errors : sum local = 4.97333e-11, global = 2.69425e-13, cumulative = 5.77955e-09
DICPCG:  Solving for p, Initial residual = 1.94671e-05, Final residual = 9.68885e-07, No Iterations 79
time step continuity errors : sum local = 2.02487e-11, global = -3.52701e-14, cumulative = 5.77951e-09
DICPCG:  Solving for p, Initial residual = 2.97184e-06, Final residual = 7.79108e-07, No Iterations 2
time step continuity errors : sum local = 1.63152e-11, global = -1.04271e-12, cumulative = 5.77847e-09
ExecutionTime = 1.87 s  ClockTime = 7 s

Time = 0.08

Courant Number mean: 0.00510834 max: 0.0123137
smoothSolver:  Solving for Ux, Initial residual = 0.00152717, Final residual = 9.9327e-07, No Iterations 3
smoothSolver:  Solving for Uy, Initial residual = 0.00148282, Final residual = 9.82198e-07, No Iterations 3
DICPCG:  Solving for p, Initial residual = 4.77607e-05, Final residual = 2.3072e-06, No Iterations 79
time step continuity errors : sum local = 4.83165e-11, global = 2.59137e-13, cumulative = 5.77873e-09
DICPCG:  Solving for p, Initial residual = 1.90165e-05, Final residual = 9.48557e-07, No Iterations 79
time step continuity errors : sum local = 1.97772e-11, global = -3.59172e-14, cumulative = 5.77869e-09
DICPCG:  Solving for p, Initial residual = 2.90191e-06, Final residual = 7.61915e-07, No Iterations 2
time step continuity errors : sum local = 1.59171e-11, global = -1.01768e-12, cumulative = 5.77767e-09
ExecutionTime = 1.88 s  ClockTime = 7 s

Time = 0.081

Courant Number mean: 0.00510866 max: 0.0123154
smoothSolver:  Solving for Ux, Initial residual = 0.00149269, Final residual = 9.70943e-07, No Iterations 3
smoothSolver:  Solving for Uy, Initial residual = 0.00144813, Final residual = 9.59456e-07, No Iterations 3
DICPCG:  Solving for p, Initial residual = 4.65428e-05, Final residual = 2.24649e-06, No Iterations 79
time step continuity errors : sum local = 4.69325e-11, global = 2.4949e-13, cumulative = 5.77792e-09
DICPCG:  Solving for p, Initial residual = 1.8577e-05, Final residual = 9.28539e-07, No Iterations 79
time step continuity errors : sum local = 1.93155e-11, global = -3.64416e-14, cumulative = 5.77789e-09
DICPCG:  Solving for p, Initial residual = 2.83333e-06, Final residual = 7.45027e-07, No Iterations 2
time step continuity errors : sum local = 1.5528e-11, global = -9.93374e-13, cumulative = 5.77689e-09
ExecutionTime = 1.9 s  ClockTime = 7 s

Time = 0.082

Courant Number mean: 0.00510898 max: 0.012317
smoothSolver:  Solving for Ux, Initial residual = 0.00145909, Final residual = 9.4919e-07, No Iterations 3
smoothSolver:  Solving for Uy, Initial residual = 0.00141441, Final residual = 9.37335e-07, No Iterations 3
DICPCG:  Solving for p, Initial residual = 4.53677e-05, Final residual = 2.18687e-06, No Iterations 79
time step continuity errors : sum local = 4.558e-11, global = 2.40146e-13, cumulative = 5.77713e-09
DICPCG:  Solving for p, Initial residual = 1.81488e-05, Final residual = 9.08989e-07, No Iterations 79
time step continuity errors : sum local = 1.88663e-11, global = -3.7045e-14, cumulative = 5.7771e-09
DICPCG:  Solving for p, Initial residual = 2.76633e-06, Final residual = 7.28652e-07, No Iterations 2
time step continuity errors : sum local = 1.5152e-11, global = -9.69975e-13, cumulative = 5.77613e-09
ExecutionTime = 1.92 s  ClockTime = 7 s

Time = 0.083

Courant Number mean: 0.00510929 max: 0.0123185
smoothSolver:  Solving for Ux, Initial residual = 0.00142636, Final residual = 9.2799e-07, No Iterations 3
smoothSolver:  Solving for Uy, Initial residual = 0.00138161, Final residual = 9.15814e-07, No Iterations 3
DICPCG:  Solving for p, Initial residual = 4.42332e-05, Final residual = 2.12808e-06, No Iterations 79
time step continuity errors : sum local = 4.42535e-11, global = 2.31297e-13, cumulative = 5.77636e-09
DICPCG:  Solving for p, Initial residual = 1.77335e-05, Final residual = 8.89937e-07, No Iterations 79
time step continuity errors : sum local = 1.84304e-11, global = -3.75227e-14, cumulative = 5.77632e-09
DICPCG:  Solving for p, Initial residual = 2.70086e-06, Final residual = 7.12864e-07, No Iterations 2
time step continuity errors : sum local = 1.47906e-11, global = -9.4728e-13, cumulative = 5.77537e-09
ExecutionTime = 1.93 s  ClockTime = 7 s

Time = 0.084

Courant Number mean: 0.00510959 max: 0.01232
smoothSolver:  Solving for Ux, Initial residual = 0.00139447, Final residual = 9.07326e-07, No Iterations 3
smoothSolver:  Solving for Uy, Initial residual = 0.00134971, Final residual = 8.94871e-07, No Iterations 3
DICPCG:  Solving for p, Initial residual = 4.31481e-05, Final residual = 2.07022e-06, No Iterations 79
time step continuity errors : sum local = 4.29543e-11, global = 2.22685e-13, cumulative = 5.7756e-09
DICPCG:  Solving for p, Initial residual = 1.73282e-05, Final residual = 8.71344e-07, No Iterations 79
time step continuity errors : sum local = 1.80067e-11, global = -3.7747e-14, cumulative = 5.77556e-09
DICPCG:  Solving for p, Initial residual = 2.63705e-06, Final residual = 6.97672e-07, No Iterations 2
time step continuity errors : sum local = 1.44436e-11, global = -9.24982e-13, cumulative = 5.77463e-09
ExecutionTime = 1.95 s  ClockTime = 7 s

Time = 0.085

Courant Number mean: 0.00510989 max: 0.0123215
smoothSolver:  Solving for Ux, Initial residual = 0.00136339, Final residual = 8.87181e-07, No Iterations 3
smoothSolver:  Solving for Uy, Initial residual = 0.00131867, Final residual = 8.74487e-07, No Iterations 3
DICPCG:  Solving for p, Initial residual = 4.20951e-05, Final residual = 2.0132e-06, No Iterations 79
[...]
time step continuity errors : sum local = 1.79996e-11, global = -1.58427e-12, cumulative = 1.05212e-08
ExecutionTime = 13.09 s  ClockTime = 18 s

Time = 1.98

Courant Number mean: 0.00512459 max: 0.0123675
smoothSolver:  Solving for Ux, Initial residual = 2.12125e-09, Final residual = 2.12125e-09, No Iterations 0
smoothSolver:  Solving for Uy, Initial residual = 3.27065e-08, Final residual = 3.27065e-08, No Iterations 0
DICPCG:  Solving for p, Initial residual = 1.35977e-06, Final residual = 2.53169e-07, No Iterations 1
time step continuity errors : sum local = 4.71368e-12, global = -1.58685e-12, cumulative = 1.05196e-08
DICPCG:  Solving for p, Initial residual = 2.48307e-07, Final residual = 2.48307e-07, No Iterations 0
time step continuity errors : sum local = 4.62306e-12, global = -1.58802e-12, cumulative = 1.05181e-08
DICPCG:  Solving for p, Initial residual = 2.68574e-07, Final residual = 2.68574e-07, No Iterations 0
time step continuity errors : sum local = 5.00041e-12, global = -1.58855e-12, cumulative = 1.05165e-08
ExecutionTime = 13.09 s  ClockTime = 18 s

Time = 1.981

Courant Number mean: 0.00512459 max: 0.0123675
smoothSolver:  Solving for Ux, Initial residual = 1.98794e-09, Final residual = 1.98794e-09, No Iterations 0
smoothSolver:  Solving for Uy, Initial residual = 3.27942e-08, Final residual = 3.27942e-08, No Iterations 0
DICPCG:  Solving for p, Initial residual = 8.36646e-07, Final residual = 8.36646e-07, No Iterations 0
time step continuity errors : sum local = 1.55769e-11, global = -1.59114e-12, cumulative = 1.05149e-08
DICPCG:  Solving for p, Initial residual = 9.07604e-07, Final residual = 9.07604e-07, No Iterations 0
time step continuity errors : sum local = 1.6898e-11, global = -1.59231e-12, cumulative = 1.05133e-08
DICPCG:  Solving for p, Initial residual = 9.37479e-07, Final residual = 9.37479e-07, No Iterations 0
time step continuity errors : sum local = 1.74542e-11, global = -1.59285e-12, cumulative = 1.05117e-08
ExecutionTime = 13.1 s  ClockTime = 18 s

Time = 1.982

Courant Number mean: 0.00512459 max: 0.0123675
smoothSolver:  Solving for Ux, Initial residual = 1.87717e-09, Final residual = 1.87717e-09, No Iterations 0
smoothSolver:  Solving for Uy, Initial residual = 2.95984e-08, Final residual = 2.95984e-08, No Iterations 0
DICPCG:  Solving for p, Initial residual = 1.31164e-06, Final residual = 2.20991e-07, No Iterations 1
time step continuity errors : sum local = 4.11445e-12, global = -1.59523e-12, cumulative = 1.05101e-08
DICPCG:  Solving for p, Initial residual = 2.28039e-07, Final residual = 2.28039e-07, No Iterations 0
time step continuity errors : sum local = 4.24569e-12, global = -1.59631e-12, cumulative = 1.05085e-08
DICPCG:  Solving for p, Initial residual = 2.48213e-07, Final residual = 2.48213e-07, No Iterations 0
time step continuity errors : sum local = 4.62129e-12, global = -1.5968e-12, cumulative = 1.05069e-08
ExecutionTime = 13.1 s  ClockTime = 18 s

Time = 1.983

Courant Number mean: 0.00512459 max: 0.0123675
smoothSolver:  Solving for Ux, Initial residual = 1.90209e-09, Final residual = 1.90209e-09, No Iterations 0
smoothSolver:  Solving for Uy, Initial residual = 3.01912e-08, Final residual = 3.01912e-08, No Iterations 0
DICPCG:  Solving for p, Initial residual = 7.82786e-07, Final residual = 7.82786e-07, No Iterations 0
time step continuity errors : sum local = 1.45742e-11, global = -1.59918e-12, cumulative = 1.05053e-08
DICPCG:  Solving for p, Initial residual = 8.50657e-07, Final residual = 8.50657e-07, No Iterations 0
time step continuity errors : sum local = 1.58378e-11, global = -1.60027e-12, cumulative = 1.05037e-08
DICPCG:  Solving for p, Initial residual = 8.79362e-07, Final residual = 8.79362e-07, No Iterations 0
time step continuity errors : sum local = 1.63722e-11, global = -1.60076e-12, cumulative = 1.05021e-08
ExecutionTime = 13.11 s  ClockTime = 18 s

Time = 1.984

Courant Number mean: 0.00512459 max: 0.0123675
smoothSolver:  Solving for Ux, Initial residual = 1.79173e-09, Final residual = 1.79173e-09, No Iterations 0
smoothSolver:  Solving for Uy, Initial residual = 2.73006e-08, Final residual = 2.73006e-08, No Iterations 0
DICPCG:  Solving for p, Initial residual = 1.23503e-06, Final residual = 2.05893e-07, No Iterations 1
time step continuity errors : sum local = 3.8332e-12, global = -1.60292e-12, cumulative = 1.05005e-08
DICPCG:  Solving for p, Initial residual = 2.06356e-07, Final residual = 2.06356e-07, No Iterations 0
time step continuity errors : sum local = 3.84191e-12, global = -1.60391e-12, cumulative = 1.04989e-08
DICPCG:  Solving for p, Initial residual = 2.23472e-07, Final residual = 2.23472e-07, No Iterations 0
time step continuity errors : sum local = 4.16058e-12, global = -1.60436e-12, cumulative = 1.04973e-08
ExecutionTime = 13.12 s  ClockTime = 18 s

Time = 1.985

Courant Number mean: 0.00512459 max: 0.0123675
smoothSolver:  Solving for Ux, Initial residual = 1.68636e-09, Final residual = 1.68636e-09, No Iterations 0
smoothSolver:  Solving for Uy, Initial residual = 2.63129e-08, Final residual = 2.63129e-08, No Iterations 0
DICPCG:  Solving for p, Initial residual = 7.10416e-07, Final residual = 7.10416e-07, No Iterations 0
time step continuity errors : sum local = 1.32266e-11, global = -1.60653e-12, cumulative = 1.04957e-08
DICPCG:  Solving for p, Initial residual = 7.68615e-07, Final residual = 7.68615e-07, No Iterations 0
time step continuity errors : sum local = 1.43102e-11, global = -1.60752e-12, cumulative = 1.04941e-08
DICPCG:  Solving for p, Initial residual = 7.93418e-07, Final residual = 7.93418e-07, No Iterations 0
time step continuity errors : sum local = 1.4772e-11, global = -1.60797e-12, cumulative = 1.04925e-08
ExecutionTime = 13.12 s  ClockTime = 18 s

Time = 1.986

Courant Number mean: 0.00512459 max: 0.0123675
smoothSolver:  Solving for Ux, Initial residual = 1.58876e-09, Final residual = 1.58876e-09, No Iterations 0
smoothSolver:  Solving for Uy, Initial residual = 2.37672e-08, Final residual = 2.37672e-08, No Iterations 0
DICPCG:  Solving for p, Initial residual = 1.11564e-06, Final residual = 1.88075e-07, No Iterations 1
time step continuity errors : sum local = 3.5017e-12, global = -1.60993e-12, cumulative = 1.04909e-08
DICPCG:  Solving for p, Initial residual = 1.89122e-07, Final residual = 1.89122e-07, No Iterations 0
time step continuity errors : sum local = 3.52112e-12, global = -1.61083e-12, cumulative = 1.04892e-08
DICPCG:  Solving for p, Initial residual = 2.05413e-07, Final residual = 2.05413e-07, No Iterations 0
time step continuity errors : sum local = 3.82443e-12, global = -1.61123e-12, cumulative = 1.04876e-08
ExecutionTime = 13.13 s  ClockTime = 18 s

Time = 1.987

Courant Number mean: 0.00512459 max: 0.0123675
smoothSolver:  Solving for Ux, Initial residual = 1.53497e-09, Final residual = 1.53497e-09, No Iterations 0
smoothSolver:  Solving for Uy, Initial residual = 2.33847e-08, Final residual = 2.33847e-08, No Iterations 0
DICPCG:  Solving for p, Initial residual = 6.49128e-07, Final residual = 6.49128e-07, No Iterations 0
time step continuity errors : sum local = 1.20856e-11, global = -1.61321e-12, cumulative = 1.0486e-08
DICPCG:  Solving for p, Initial residual = 7.02169e-07, Final residual = 7.02169e-07, No Iterations 0
time step continuity errors : sum local = 1.30731e-11, global = -1.61411e-12, cumulative = 1.04844e-08
DICPCG:  Solving for p, Initial residual = 7.24787e-07, Final residual = 7.24787e-07, No Iterations 0
time step continuity errors : sum local = 1.34942e-11, global = -1.61452e-12, cumulative = 1.04828e-08
ExecutionTime = 13.13 s  ClockTime = 18 s

Time = 1.988

Courant Number mean: 0.00512459 max: 0.0123675
smoothSolver:  Solving for Ux, Initial residual = 1.44584e-09, Final residual = 1.44584e-09, No Iterations 0
smoothSolver:  Solving for Uy, Initial residual = 2.11094e-08, Final residual = 2.11094e-08, No Iterations 0
DICPCG:  Solving for p, Initial residual = 1.01465e-06, Final residual = 1.77042e-07, No Iterations 1
time step continuity errors : sum local = 3.29623e-12, global = -1.61629e-12, cumulative = 1.04812e-08
DICPCG:  Solving for p, Initial residual = 1.7763e-07, Final residual = 1.7763e-07, No Iterations 0
time step continuity errors : sum local = 3.30708e-12, global = -1.6171e-12, cumulative = 1.04796e-08
DICPCG:  Solving for p, Initial residual = 1.9221e-07, Final residual = 1.9221e-07, No Iterations 0
time step continuity errors : sum local = 3.57854e-12, global = -1.61747e-12, cumulative = 1.04779e-08
ExecutionTime = 13.13 s  ClockTime = 18 s

Time = 1.989

Courant Number mean: 0.00512459 max: 0.0123675
smoothSolver:  Solving for Ux, Initial residual = 1.36628e-09, Final residual = 1.36628e-09, No Iterations 0
smoothSolver:  Solving for Uy, Initial residual = 2.06249e-08, Final residual = 2.06249e-08, No Iterations 0
DICPCG:  Solving for p, Initial residual = 5.86317e-07, Final residual = 5.86317e-07, No Iterations 0
time step continuity errors : sum local = 1.09163e-11, global = -1.61926e-12, cumulative = 1.04763e-08
DICPCG:  Solving for p, Initial residual = 6.31799e-07, Final residual = 6.31799e-07, No Iterations 0
time step continuity errors : sum local = 1.17631e-11, global = -1.62008e-12, cumulative = 1.04747e-08
DICPCG:  Solving for p, Initial residual = 6.51332e-07, Final residual = 6.51332e-07, No Iterations 0
time step continuity errors : sum local = 1.21268e-11, global = -1.62045e-12, cumulative = 1.04731e-08
ExecutionTime = 13.13 s  ClockTime = 18 s

Time = 1.99

Courant Number mean: 0.00512459 max: 0.0123675
smoothSolver:  Solving for Ux, Initial residual = 1.28736e-09, Final residual = 1.28736e-09, No Iterations 0
smoothSolver:  Solving for Uy, Initial residual = 1.86155e-08, Final residual = 1.86155e-08, No Iterations 0
DICPCG:  Solving for p, Initial residual = 9.09935e-07, Final residual = 9.09935e-07, No Iterations 0
time step continuity errors : sum local = 1.69413e-11, global = -1.62225e-12, cumulative = 1.04715e-08
DICPCG:  Solving for p, Initial residual = 9.54511e-07, Final residual = 9.54511e-07, No Iterations 0
time step continuity errors : sum local = 1.77712e-11, global = -1.62307e-12, cumulative = 1.04698e-08
DICPCG:  Solving for p, Initial residual = 9.73334e-07, Final residual = 9.73334e-07, No Iterations 0
time step continuity errors : sum local = 1.81217e-11, global = -1.62345e-12, cumulative = 1.04682e-08
ExecutionTime = 13.14 s  ClockTime = 18 s

Time = 1.991

Courant Number mean: 0.00512459 max: 0.0123675
smoothSolver:  Solving for Ux, Initial residual = 1.21518e-09, Final residual = 1.21518e-09, No Iterations 0
smoothSolver:  Solving for Uy, Initial residual = 1.68504e-08, Final residual = 1.68504e-08, No Iterations 0
DICPCG:  Solving for p, Initial residual = 1.15326e-06, Final residual = 2.13543e-07, No Iterations 1
time step continuity errors : sum local = 3.97576e-12, global = -1.62507e-12, cumulative = 1.04666e-08
DICPCG:  Solving for p, Initial residual = 2.22513e-07, Final residual = 2.22513e-07, No Iterations 0
time step continuity errors : sum local = 4.14275e-12, global = -1.62581e-12, cumulative = 1.0465e-08
DICPCG:  Solving for p, Initial residual = 2.50824e-07, Final residual = 2.50824e-07, No Iterations 0
time step continuity errors : sum local = 4.66985e-12, global = -1.62615e-12, cumulative = 1.04633e-08
ExecutionTime = 13.14 s  ClockTime = 18 s

Time = 1.992

Courant Number mean: 0.00512459 max: 0.0123675
smoothSolver:  Solving for Ux, Initial residual = 2.1216e-09, Final residual = 2.1216e-09, No Iterations 0
smoothSolver:  Solving for Uy, Initial residual = 3.37598e-08, Final residual = 3.37598e-08, No Iterations 0
DICPCG:  Solving for p, Initial residual = 8.25356e-07, Final residual = 8.25356e-07, No Iterations 0
time step continuity errors : sum local = 1.53667e-11, global = -1.62779e-12, cumulative = 1.04617e-08
DICPCG:  Solving for p, Initial residual = 9.00597e-07, Final residual = 9.00597e-07, No Iterations 0
time step continuity errors : sum local = 1.67675e-11, global = -1.62854e-12, cumulative = 1.04601e-08
DICPCG:  Solving for p, Initial residual = 9.32046e-07, Final residual = 9.32046e-07, No Iterations 0
time step continuity errors : sum local = 1.7353e-11, global = -1.62888e-12, cumulative = 1.04585e-08
ExecutionTime = 13.15 s  ClockTime = 18 s

Time = 1.993

Courant Number mean: 0.00512459 max: 0.0123675
smoothSolver:  Solving for Ux, Initial residual = 2.00112e-09, Final residual = 2.00112e-09, No Iterations 0
smoothSolver:  Solving for Uy, Initial residual = 3.04546e-08, Final residual = 3.04546e-08, No Iterations 0
DICPCG:  Solving for p, Initial residual = 1.30892e-06, Final residual = 2.43408e-07, No Iterations 1
time step continuity errors : sum local = 4.53184e-12, global = -1.63036e-12, cumulative = 1.04568e-08
DICPCG:  Solving for p, Initial residual = 2.3926e-07, Final residual = 2.3926e-07, No Iterations 0
time step continuity errors : sum local = 4.4546e-12, global = -1.63104e-12, cumulative = 1.04552e-08
DICPCG:  Solving for p, Initial residual = 2.59178e-07, Final residual = 2.59178e-07, No Iterations 0
time step continuity errors : sum local = 4.82543e-12, global = -1.63136e-12, cumulative = 1.04536e-08
ExecutionTime = 13.15 s  ClockTime = 18 s

Time = 1.994

Courant Number mean: 0.00512459 max: 0.0123675
smoothSolver:  Solving for Ux, Initial residual = 1.87105e-09, Final residual = 1.87105e-09, No Iterations 0
smoothSolver:  Solving for Uy, Initial residual = 3.05652e-08, Final residual = 3.05652e-08, No Iterations 0
DICPCG:  Solving for p, Initial residual = 8.02001e-07, Final residual = 8.02001e-07, No Iterations 0
time step continuity errors : sum local = 1.49318e-11, global = -1.63286e-12, cumulative = 1.04519e-08
DICPCG:  Solving for p, Initial residual = 8.69342e-07, Final residual = 8.69342e-07, No Iterations 0
time step continuity errors : sum local = 1.61856e-11, global = -1.63354e-12, cumulative = 1.04503e-08
DICPCG:  Solving for p, Initial residual = 8.97705e-07, Final residual = 8.97705e-07, No Iterations 0
time step continuity errors : sum local = 1.67137e-11, global = -1.63386e-12, cumulative = 1.04487e-08
ExecutionTime = 13.15 s  ClockTime = 18 s

Time = 1.995

Courant Number mean: 0.00512459 max: 0.0123675
smoothSolver:  Solving for Ux, Initial residual = 1.76492e-09, Final residual = 1.76492e-09, No Iterations 0
smoothSolver:  Solving for Uy, Initial residual = 2.75799e-08, Final residual = 2.75799e-08, No Iterations 0
DICPCG:  Solving for p, Initial residual = 1.25449e-06, Final residual = 2.14321e-07, No Iterations 1
time step continuity errors : sum local = 3.99029e-12, global = -1.63524e-12, cumulative = 1.0447e-08
DICPCG:  Solving for p, Initial residual = 2.2178e-07, Final residual = 2.2178e-07, No Iterations 0
time step continuity errors : sum local = 4.1291e-12, global = -1.63588e-12, cumulative = 1.04454e-08
DICPCG:  Solving for p, Initial residual = 2.40979e-07, Final residual = 2.40979e-07, No Iterations 0
time step continuity errors : sum local = 4.48654e-12, global = -1.63617e-12, cumulative = 1.04438e-08
ExecutionTime = 13.16 s  ClockTime = 18 s

Time = 1.996

Courant Number mean: 0.00512459 max: 0.0123675
smoothSolver:  Solving for Ux, Initial residual = 1.7842e-09, Final residual = 1.7842e-09, No Iterations 0
smoothSolver:  Solving for Uy, Initial residual = 2.81539e-08, Final residual = 2.81539e-08, No Iterations 0
DICPCG:  Solving for p, Initial residual = 7.4816e-07, Final residual = 7.4816e-07, No Iterations 0
time step continuity errors : sum local = 1.39295e-11, global = -1.63756e-12, cumulative = 1.04421e-08
DICPCG:  Solving for p, Initial residual = 8.12066e-07, Final residual = 8.12066e-07, No Iterations 0
time step continuity errors : sum local = 1.51193e-11, global = -1.6382e-12, cumulative = 1.04405e-08
DICPCG:  Solving for p, Initial residual = 8.39101e-07, Final residual = 8.39101e-07, No Iterations 0
time step continuity errors : sum local = 1.56226e-11, global = -1.63849e-12, cumulative = 1.04388e-08
ExecutionTime = 13.16 s  ClockTime = 18 s

Time = 1.997

Courant Number mean: 0.00512459 max: 0.0123675
smoothSolver:  Solving for Ux, Initial residual = 1.67981e-09, Final residual = 1.67981e-09, No Iterations 0
smoothSolver:  Solving for Uy, Initial residual = 2.54585e-08, Final residual = 2.54585e-08, No Iterations 0
DICPCG:  Solving for p, Initial residual = 1.17691e-06, Final residual = 2.01342e-07, No Iterations 1
time step continuity errors : sum local = 3.74861e-12, global = -1.63979e-12, cumulative = 1.04372e-08
DICPCG:  Solving for p, Initial residual = 2.01042e-07, Final residual = 2.01042e-07, No Iterations 0
time step continuity errors : sum local = 3.74309e-12, global = -1.64038e-12, cumulative = 1.04356e-08
DICPCG:  Solving for p, Initial residual = 2.17241e-07, Final residual = 2.17241e-07, No Iterations 0
time step continuity errors : sum local = 4.04468e-12, global = -1.64065e-12, cumulative = 1.04339e-08
ExecutionTime = 13.17 s  ClockTime = 18 s

Time = 1.998

Courant Number mean: 0.00512459 max: 0.0123675
smoothSolver:  Solving for Ux, Initial residual = 1.58e-09, Final residual = 1.58e-09, No Iterations 0
smoothSolver:  Solving for Uy, Initial residual = 2.45781e-08, Final residual = 2.45781e-08, No Iterations 0
DICPCG:  Solving for p, Initial residual = 6.78378e-07, Final residual = 6.78378e-07, No Iterations 0
time step continuity errors : sum local = 1.26301e-11, global = -1.64196e-12, cumulative = 1.04323e-08
DICPCG:  Solving for p, Initial residual = 7.3322e-07, Final residual = 7.3322e-07, No Iterations 0
time step continuity errors : sum local = 1.36512e-11, global = -1.64256e-12, cumulative = 1.04306e-08
DICPCG:  Solving for p, Initial residual = 7.5666e-07, Final residual = 7.5666e-07, No Iterations 0
time step continuity errors : sum local = 1.40876e-11, global = -1.64283e-12, cumulative = 1.0429e-08
ExecutionTime = 13.17 s  ClockTime = 18 s

Time = 1.999

Courant Number mean: 0.00512459 max: 0.0123675
smoothSolver:  Solving for Ux, Initial residual = 1.48761e-09, Final residual = 1.48761e-09, No Iterations 0
smoothSolver:  Solving for Uy, Initial residual = 2.21989e-08, Final residual = 2.21989e-08, No Iterations 0
DICPCG:  Solving for p, Initial residual = 1.06153e-06, Final residual = 1.82969e-07, No Iterations 1
time step continuity errors : sum local = 3.40655e-12, global = -1.64406e-12, cumulative = 1.04273e-08
DICPCG:  Solving for p, Initial residual = 1.84148e-07, Final residual = 1.84148e-07, No Iterations 0
time step continuity errors : sum local = 3.42844e-12, global = -1.64463e-12, cumulative = 1.04257e-08
DICPCG:  Solving for p, Initial residual = 1.99651e-07, Final residual = 1.99651e-07, No Iterations 0
time step continuity errors : sum local = 3.71709e-12, global = -1.64489e-12, cumulative = 1.04241e-08
ExecutionTime = 13.18 s  ClockTime = 18 s

Time = 2

Courant Number mean: 0.00512459 max: 0.0123675
smoothSolver:  Solving for Ux, Initial residual = 1.43405e-09, Final residual = 1.43405e-09, No Iterations 0
smoothSolver:  Solving for Uy, Initial residual = 2.18534e-08, Final residual = 2.18534e-08, No Iterations 0
DICPCG:  Solving for p, Initial residual = 6.1944e-07, Final residual = 6.1944e-07, No Iterations 0
time step continuity errors : sum local = 1.15328e-11, global = -1.64613e-12, cumulative = 1.04224e-08
DICPCG:  Solving for p, Initial residual = 6.69301e-07, Final residual = 6.69301e-07, No Iterations 0
time step continuity errors : sum local = 1.24611e-11, global = -1.6467e-12, cumulative = 1.04208e-08
DICPCG:  Solving for p, Initial residual = 6.90634e-07, Final residual = 6.90634e-07, No Iterations 0
time step continuity errors : sum local = 1.28583e-11, global = -1.64696e-12, cumulative = 1.04191e-08
ExecutionTime = 13.2 s  ClockTime = 18 s

    functionObjects::components components(U) writing field: Ux
    functionObjects::components components(U) writing field: Uy
    functionObjects::components components(U) writing field: Uz
End

