/*---------------------------------------------------------------------------*\
| =========                 |                                                 |
| \\      /  F ield         | OpenFOAM: The Open Source CFD Toolbox           |
|  \\    /   O peration     | Version:  2012                                  |
|   \\  /    A nd           | Website:  www.openfoam.com                      |
|    \\/     M anipulation  |                                                 |
\*---------------------------------------------------------------------------*/
Build  : _269d0ffd5c-20210619 OPENFOAM=2012 patch=210618
Arch   : "LSB;label=32;scalar=64"
Exec   : mhdPimpleFoam
Date   : Apr 04 2022
Time   : 13:16:24
Host   : gabrielmarconcini-Lenovo-G50-80
PID    : 54515
I/O    : uncollated
Case   : /home/gabrielmarconcini/Documentos/TCC/PTCC/ShockTube/sim/NewSolver/ShockTube4_100
nProcs : 1
trapFpe: Floating point exception trapping enabled (FOAM_SIGFPE).
fileModificationChecking : Monitoring run-time modified files using timeStampMaster (fileModificationSkew 5, maxFileModificationPolls 20)
allowSystemOperations : Allowing user-supplied system call operations

// * * * * * * * * * * * * * * * * * * * * * * * * * * * * * * * * * * * * * //
Create time

Create mesh for time = 0


PIMPLE: Operating solver in PISO mode

Reading thermophysical properties

Selecting thermodynamics package 
{
    type            hePsiThermo;
    mixture         pureMixture;
    transport       const;
    thermo          eConst;
    equationOfState perfectGas;
    specie          specie;
    energy          sensibleInternalEnergy;
}

Reading field U

Reading/calculating face flux field phi

Creating turbulence model

Selecting turbulence model type laminar
Selecting laminar stress model Stokes
Creating field dpdt

Creating field kinetic energy K

No MRF models present

No finite volume options present
Courant Number mean: 0 max: 0

Starting time loop

Courant Number mean: 0 max: 0
Time = 1e-05

PIMPLE: iteration 1
diagonal:  Solving for rho, Initial residual = 0, Final residual = 0, No Iterations 0
smoothSolver:  Solving for Ux, Initial residual = 1, Final residual = 0, No Iterations 1
smoothSolver:  Solving for e, Initial residual = 5.71873e-17, Final residual = 5.71873e-17, No Iterations 0
smoothSolver:  Solving for p, Initial residual = 1.78207e-05, Final residual = 1.74233e-17, No Iterations 2
diagonal:  Solving for rho, Initial residual = 0, Final residual = 0, No Iterations 0
time step continuity errors : sum local = 1.22669e-16, global = 9.89265e-18, cumulative = 9.89265e-18
smoothSolver:  Solving for p, Initial residual = 5.60352e-08, Final residual = 7.0029e-18, No Iterations 2
diagonal:  Solving for rho, Initial residual = 0, Final residual = 0, No Iterations 0
time step continuity errors : sum local = 1.014e-16, global = -5.44096e-18, cumulative = 4.45169e-18
ExecutionTime = 0.03 s  ClockTime = 0 s

Courant Number mean: 4.04648e-05 max: 0.00359057
Time = 2e-05

PIMPLE: iteration 1
diagonal:  Solving for rho, Initial residual = 0, Final residual = 0, No Iterations 0
smoothSolver:  Solving for Ux, Initial residual = 0.126772, Final residual = 1.50156e-17, No Iterations 1
smoothSolver:  Solving for e, Initial residual = 8.05652e-05, Final residual = 4.74779e-17, No Iterations 1
smoothSolver:  Solving for p, Initial residual = 5.04504e-05, Final residual = 4.68233e-17, No Iterations 2
diagonal:  Solving for rho, Initial residual = 0, Final residual = 0, No Iterations 0
time step continuity errors : sum local = 2.14176e-16, global = 2.62155e-17, cumulative = 3.06672e-17
smoothSolver:  Solving for p, Initial residual = 1.18915e-07, Final residual = 6.43295e-18, No Iterations 2
diagonal:  Solving for rho, Initial residual = 0, Final residual = 0, No Iterations 0
time step continuity errors : sum local = 9.32382e-17, global = -4.69901e-18, cumulative = 2.59682e-17
ExecutionTime = 0.03 s  ClockTime = 0 s

Courant Number mean: 0.000120146 max: 0.00973321
Time = 3e-05

PIMPLE: iteration 1
diagonal:  Solving for rho, Initial residual = 0, Final residual = 0, No Iterations 0
smoothSolver:  Solving for Ux, Initial residual = 0.0673293, Final residual = 9.59669e-18, No Iterations 1
smoothSolver:  Solving for e, Initial residual = 0.000204488, Final residual = 4.46024e-17, No Iterations 2
smoothSolver:  Solving for p, Initial residual = 9.61068e-05, Final residual = 8.17517e-17, No Iterations 2
diagonal:  Solving for rho, Initial residual = 0, Final residual = 0, No Iterations 0
time step continuity errors : sum local = 2.77241e-16, global = 2.10219e-17, cumulative = 4.69901e-17
smoothSolver:  Solving for p, Initial residual = 3.10982e-07, Final residual = 4.79616e-18, No Iterations 2
diagonal:  Solving for rho, Initial residual = 0, Final residual = 0, No Iterations 0
time step continuity errors : sum local = 9.99157e-17, global = -2.96779e-18, cumulative = 4.40223e-17
ExecutionTime = 0.03 s  ClockTime = 0 s

Courant Number mean: 0.000198411 max: 0.0157076
Time = 4e-05

PIMPLE: iteration 1
diagonal:  Solving for rho, Initial residual = 0, Final residual = 0, No Iterations 0
smoothSolver:  Solving for Ux, Initial residual = 0.045604, Final residual = 8.42542e-18, No Iterations 1
smoothSolver:  Solving for e, Initial residual = 0.000361949, Final residual = 3.10031e-16, No Iterations 2
smoothSolver:  Solving for p, Initial residual = 0.000141025, Final residual = 1.1866e-16, No Iterations 2
diagonal:  Solving for rho, Initial residual = 0, Final residual = 0, No Iterations 0
time step continuity errors : sum local = 3.49952e-16, global = -1.60756e-17, cumulative = 2.79467e-17
smoothSolver:  Solving for p, Initial residual = 5.64217e-07, Final residual = 7.89034e-18, No Iterations 2
diagonal:  Solving for rho, Initial residual = 0, Final residual = 0, No Iterations 0
time step continuity errors : sum local = 1.0412e-16, global = 1.014e-17, cumulative = 3.80867e-17
ExecutionTime = 0.04 s  ClockTime = 0 s

Courant Number mean: 0.000259107 max: 0.0204916
Time = 5e-05

PIMPLE: iteration 1
diagonal:  Solving for rho, Initial residual = 0, Final residual = 0, No Iterations 0
smoothSolver:  Solving for Ux, Initial residual = 0.0342917, Final residual = 1.12126e-17, No Iterations 1
smoothSolver:  Solving for e, Initial residual = 0.000506821, Final residual = 3.62543e-17, No Iterations 3
smoothSolver:  Solving for p, Initial residual = 0.000182035, Final residual = 1.49862e-16, No Iterations 2
diagonal:  Solving for rho, Initial residual = 0, Final residual = 0, No Iterations 0
time step continuity errors : sum local = 4.00158e-16, global = -2.72048e-17, cumulative = 1.08819e-17
smoothSolver:  Solving for p, Initial residual = 8.26943e-07, Final residual = 7.37411e-18, No Iterations 2
diagonal:  Solving for rho, Initial residual = 0, Final residual = 0, No Iterations 0
time step continuity errors : sum local = 8.90338e-17, global = 9.89265e-18, cumulative = 2.07746e-17
ExecutionTime = 0.04 s  ClockTime = 0 s

Courant Number mean: 0.000318315 max: 0.0247291
Time = 6e-05

PIMPLE: iteration 1
diagonal:  Solving for rho, Initial residual = 0, Final residual = 0, No Iterations 0
smoothSolver:  Solving for Ux, Initial residual = 0.0274123, Final residual = 1.43189e-17, No Iterations 1
smoothSolver:  Solving for e, Initial residual = 0.000633668, Final residual = 3.93437e-17, No Iterations 3
smoothSolver:  Solving for p, Initial residual = 0.000218433, Final residual = 1.83585e-16, No Iterations 2
diagonal:  Solving for rho, Initial residual = 0, Final residual = 0, No Iterations 0
time step continuity errors : sum local = 4.64954e-16, global = -4.99579e-17, cumulative = -2.91833e-17
smoothSolver:  Solving for p, Initial residual = 1.06843e-06, Final residual = 6.6801e-18, No Iterations 2
diagonal:  Solving for rho, Initial residual = 0, Final residual = 0, No Iterations 0
time step continuity errors : sum local = 9.05177e-17, global = 9.89265e-18, cumulative = -1.92907e-17
ExecutionTime = 0.04 s  ClockTime = 0 s

Courant Number mean: 0.000365034 max: 0.0279317
Time = 7e-05

PIMPLE: iteration 1
diagonal:  Solving for rho, Initial residual = 0, Final residual = 0, No Iterations 0
smoothSolver:  Solving for Ux, Initial residual = 0.0227624, Final residual = 3.67262e-18, No Iterations 1
smoothSolver:  Solving for e, Initial residual = 0.000738939, Final residual = 4.0285e-17, No Iterations 3
smoothSolver:  Solving for p, Initial residual = 0.000249861, Final residual = 2.07272e-16, No Iterations 2
diagonal:  Solving for rho, Initial residual = 0, Final residual = 0, No Iterations 0
time step continuity errors : sum local = 5.07987e-16, global = -4.20438e-17, cumulative = -6.13344e-17
smoothSolver:  Solving for p, Initial residual = 1.26777e-06, Final residual = 7.25277e-18, No Iterations 2
diagonal:  Solving for rho, Initial residual = 0, Final residual = 0, No Iterations 0
time step continuity errors : sum local = 1.00658e-16, global = 6.67754e-18, cumulative = -5.46569e-17
ExecutionTime = 0.04 s  ClockTime = 0 s

Courant Number mean: 0.00040465 max: 0.0303792
Time = 8e-05

PIMPLE: iteration 1
diagonal:  Solving for rho, Initial residual = 0, Final residual = 0, No Iterations 0
smoothSolver:  Solving for Ux, Initial residual = 0.0194563, Final residual = 6.47312e-18, No Iterations 1
smoothSolver:  Solving for e, Initial residual = 0.0008218, Final residual = 6.98867e-17, No Iterations 3
smoothSolver:  Solving for p, Initial residual = 0.000276497, Final residual = 2.28313e-16, No Iterations 2
diagonal:  Solving for rho, Initial residual = 0, Final residual = 0, No Iterations 0
time step continuity errors : sum local = 5.39397e-16, global = -5.3173e-17, cumulative = -1.0783e-16
smoothSolver:  Solving for p, Initial residual = 1.41502e-06, Final residual = 9.61868e-18, No Iterations 2
diagonal:  Solving for rho, Initial residual = 0, Final residual = 0, No Iterations 0
time step continuity errors : sum local = 9.0765e-17, global = 1.16239e-17, cumulative = -9.6206e-17
ExecutionTime = 0.04 s  ClockTime = 0 s

Courant Number mean: 0.000436621 max: 0.0321027
Time = 9e-05

PIMPLE: iteration 1
diagonal:  Solving for rho, Initial residual = 0, Final residual = 0, No Iterations 0
smoothSolver:  Solving for Ux, Initial residual = 0.0169991, Final residual = 1.11135e-17, No Iterations 1
smoothSolver:  Solving for e, Initial residual = 0.000882435, Final residual = 2.05423e-16, No Iterations 3
smoothSolver:  Solving for p, Initial residual = 0.000298675, Final residual = 2.47474e-16, No Iterations 2
diagonal:  Solving for rho, Initial residual = 0, Final residual = 0, No Iterations 0
time step continuity errors : sum local = 5.73032e-16, global = -7.39475e-17, cumulative = -1.70154e-16
smoothSolver:  Solving for p, Initial residual = 1.56548e-06, Final residual = 9.34989e-18, No Iterations 2
diagonal:  Solving for rho, Initial residual = 0, Final residual = 0, No Iterations 0
time step continuity errors : sum local = 8.06251e-17, global = 8.90338e-18, cumulative = -1.6125e-16
ExecutionTime = 0.04 s  ClockTime = 0 s

Courant Number mean: 0.000462634 max: 0.033243
Time = 0.0001

PIMPLE: iteration 1
diagonal:  Solving for rho, Initial residual = 0, Final residual = 0, No Iterations 0
smoothSolver:  Solving for Ux, Initial residual = 0.0151185, Final residual = 2.21606e-17, No Iterations 1
smoothSolver:  Solving for e, Initial residual = 0.000922334, Final residual = 6.38601e-16, No Iterations 3
smoothSolver:  Solving for p, Initial residual = 0.000316959, Final residual = 2.61538e-16, No Iterations 2
diagonal:  Solving for rho, Initial residual = 0, Final residual = 0, No Iterations 0
time step continuity errors : sum local = 6.05183e-16, global = -7.24636e-17, cumulative = -2.33714e-16
smoothSolver:  Solving for p, Initial residual = 1.80193e-06, Final residual = 7.94666e-18, No Iterations 2
diagonal:  Solving for rho, Initial residual = 0, Final residual = 0, No Iterations 0
time step continuity errors : sum local = 1.01152e-16, global = 1.50863e-17, cumulative = -2.18628e-16
ExecutionTime = 0.04 s  ClockTime = 0 s

Courant Number mean: 0.000483885 max: 0.0339152
Time = 0.00011

PIMPLE: iteration 1
diagonal:  Solving for rho, Initial residual = 0, Final residual = 0, No Iterations 0
smoothSolver:  Solving for Ux, Initial residual = 0.0136442, Final residual = 1.05139e-17, No Iterations 1
smoothSolver:  Solving for e, Initial residual = 0.000950067, Final residual = 4.96422e-17, No Iterations 4
smoothSolver:  Solving for p, Initial residual = 0.000332591, Final residual = 2.72718e-16, No Iterations 2
diagonal:  Solving for rho, Initial residual = 0, Final residual = 0, No Iterations 0
time step continuity errors : sum local = 6.1557e-16, global = -4.97106e-17, cumulative = -2.68338e-16
smoothSolver:  Solving for p, Initial residual = 2.02809e-06, Final residual = 1.05174e-17, No Iterations 2
diagonal:  Solving for rho, Initial residual = 0, Final residual = 0, No Iterations 0
time step continuity errors : sum local = 1.06346e-16, global = 1.78068e-17, cumulative = -2.50531e-16
ExecutionTime = 0.04 s  ClockTime = 0 s

Courant Number mean: 0.000501537 max: 0.0342264
Time = 0.00012

PIMPLE: iteration 1
diagonal:  Solving for rho, Initial residual = 0, Final residual = 0, No Iterations 0
smoothSolver:  Solving for Ux, Initial residual = 0.0124657, Final residual = 1.01126e-17, No Iterations 1
smoothSolver:  Solving for e, Initial residual = 0.000988847, Final residual = 4.18213e-17, No Iterations 4
smoothSolver:  Solving for p, Initial residual = 0.000347412, Final residual = 2.82778e-16, No Iterations 2
diagonal:  Solving for rho, Initial residual = 0, Final residual = 0, No Iterations 0
time step continuity errors : sum local = 6.37581e-16, global = -3.41296e-17, cumulative = -2.84661e-16
smoothSolver:  Solving for p, Initial residual = 2.2539e-06, Final residual = 8.60909e-18, No Iterations 2
diagonal:  Solving for rho, Initial residual = 0, Final residual = 0, No Iterations 0
time step continuity errors : sum local = 9.49694e-17, global = 3.85813e-17, cumulative = -2.4608e-16
ExecutionTime = 0.04 s  ClockTime = 0 s

Courant Number mean: 0.000516568 max: 0.034266
Time = 0.00013

PIMPLE: iteration 1
diagonal:  Solving for rho, Initial residual = 0, Final residual = 0, No Iterations 0
smoothSolver:  Solving for Ux, Initial residual = 0.011508, Final residual = 1.05786e-17, No Iterations 1
smoothSolver:  Solving for e, Initial residual = 0.00101576, Final residual = 3.73197e-17, No Iterations 4
smoothSolver:  Solving for p, Initial residual = 0.000359707, Final residual = 2.95073e-16, No Iterations 2
diagonal:  Solving for rho, Initial residual = 0, Final residual = 0, No Iterations 0
time step continuity errors : sum local = 6.3857e-16, global = -5.29257e-17, cumulative = -2.99005e-16
smoothSolver:  Solving for p, Initial residual = 2.46625e-06, Final residual = 9.98042e-18, No Iterations 2
diagonal:  Solving for rho, Initial residual = 0, Final residual = 0, No Iterations 0
time step continuity errors : sum local = 1.03625e-16, global = 2.10219e-17, cumulative = -2.77983e-16
ExecutionTime = 0.05 s  ClockTime = 0 s

Courant Number mean: 0.000529775 max: 0.0341065
Time = 0.00014

PIMPLE: iteration 1
diagonal:  Solving for rho, Initial residual = 0, Final residual = 0, No Iterations 0
smoothSolver:  Solving for Ux, Initial residual = 0.0107003, Final residual = 8.49504e-18, No Iterations 1
smoothSolver:  Solving for e, Initial residual = 0.00102449, Final residual = 2.36573e-16, No Iterations 2
smoothSolver:  Solving for p, Initial residual = 0.00036643, Final residual = 2.99559e-16, No Iterations 2
diagonal:  Solving for rho, Initial residual = 0, Final residual = 0, No Iterations 0
time step continuity errors : sum local = 6.37334e-16, global = -5.61408e-17, cumulative = -3.34124e-16
smoothSolver:  Solving for p, Initial residual = 2.63982e-06, Final residual = 8.62624e-18, No Iterations 2
diagonal:  Solving for rho, Initial residual = 0, Final residual = 0, No Iterations 0
time step continuity errors : sum local = 9.39802e-17, global = 8.40875e-18, cumulative = -3.25715e-16
ExecutionTime = 0.05 s  ClockTime = 0 s

Courant Number mean: 0.000541798 max: 0.0338056
Time = 0.00015

PIMPLE: iteration 1
diagonal:  Solving for rho, Initial residual = 0, Final residual = 0, No Iterations 0
smoothSolver:  Solving for Ux, Initial residual = 0.0100068, Final residual = 1.0719e-17, No Iterations 1
smoothSolver:  Solving for e, Initial residual = 0.00100973, Final residual = 3.59084e-16, No Iterations 2
smoothSolver:  Solving for p, Initial residual = 0.000372059, Final residual = 3.06082e-16, No Iterations 2
diagonal:  Solving for rho, Initial residual = 0, Final residual = 0, No Iterations 0
time step continuity errors : sum local = 6.67259e-16, global = -6.33129e-17, cumulative = -3.89028e-16
smoothSolver:  Solving for p, Initial residual = 2.80659e-06, Final residual = 9.24989e-18, No Iterations 2
diagonal:  Solving for rho, Initial residual = 0, Final residual = 0, No Iterations 0
time step continuity errors : sum local = 1.06346e-16, global = 3.95706e-18, cumulative = -3.85071e-16
ExecutionTime = 0.05 s  ClockTime = 0 s

Courant Number mean: 0.000553142 max: 0.0334085
Time = 0.00016

PIMPLE: iteration 1
diagonal:  Solving for rho, Initial residual = 0, Final residual = 0, No Iterations 0
smoothSolver:  Solving for Ux, Initial residual = 0.00940955, Final residual = 8.74541e-18, No Iterations 1
smoothSolver:  Solving for e, Initial residual = 0.000987941, Final residual = 5.59022e-16, No Iterations 2
smoothSolver:  Solving for p, Initial residual = 0.000376092, Final residual = 3.05853e-16, No Iterations 2
diagonal:  Solving for rho, Initial residual = 0, Final residual = 0, No Iterations 0
time step continuity errors : sum local = 6.71216e-16, global = -6.77646e-17, cumulative = -4.52836e-16
smoothSolver:  Solving for p, Initial residual = 2.96213e-06, Final residual = 1.07133e-17, No Iterations 2
diagonal:  Solving for rho, Initial residual = 0, Final residual = 0, No Iterations 0
time step continuity errors : sum local = 1.04367e-16, global = 1.33551e-17, cumulative = -4.39481e-16
ExecutionTime = 0.05 s  ClockTime = 0 s

Courant Number mean: 0.000564201 max: 0.0329493
Time = 0.00017

PIMPLE: iteration 1
diagonal:  Solving for rho, Initial residual = 0, Final residual = 0, No Iterations 0
smoothSolver:  Solving for Ux, Initial residual = 0.00889423, Final residual = 1.07569e-17, No Iterations 1
smoothSolver:  Solving for e, Initial residual = 0.000960676, Final residual = 8.50628e-16, No Iterations 2
smoothSolver:  Solving for p, Initial residual = 0.000378782, Final residual = 3.06585e-16, No Iterations 2
diagonal:  Solving for rho, Initial residual = 0, Final residual = 0, No Iterations 0
time step continuity errors : sum local = 6.56872e-16, global = -4.74847e-17, cumulative = -4.86966e-16
smoothSolver:  Solving for p, Initial residual = 3.10825e-06, Final residual = 1.36431e-17, No Iterations 2
diagonal:  Solving for rho, Initial residual = 0, Final residual = 0, No Iterations 0
time step continuity errors : sum local = 1.1055e-16, global = 1.4097e-17, cumulative = -4.72869e-16
ExecutionTime = 0.05 s  ClockTime = 0 s

Courant Number mean: 0.000575285 max: 0.0324539
Time = 0.00018

PIMPLE: iteration 1
diagonal:  Solving for rho, Initial residual = 0, Final residual = 0, No Iterations 0
smoothSolver:  Solving for Ux, Initial residual = 0.00844424, Final residual = 2.9436e-17, No Iterations 1
smoothSolver:  Solving for e, Initial residual = 0.000929295, Final residual = 3.94949e-17, No Iterations 3
smoothSolver:  Solving for p, Initial residual = 0.000380347, Final residual = 3.10903e-16, No Iterations 2
diagonal:  Solving for rho, Initial residual = 0, Final residual = 0, No Iterations 0
time step continuity errors : sum local = 6.67506e-16, global = -5.713e-17, cumulative = -5.29999e-16
smoothSolver:  Solving for p, Initial residual = 3.24691e-06, Final residual = 1.06632e-17, No Iterations 2
diagonal:  Solving for rho, Initial residual = 0, Final residual = 0, No Iterations 0
time step continuity errors : sum local = 1.00163e-16, global = 3.19038e-17, cumulative = -4.98095e-16
ExecutionTime = 0.05 s  ClockTime = 0 s

Courant Number mean: 0.000586649 max: 0.0319419
Time = 0.00019

PIMPLE: iteration 1
diagonal:  Solving for rho, Initial residual = 0, Final residual = 0, No Iterations 0
smoothSolver:  Solving for Ux, Initial residual = 0.0080466, Final residual = 7.82458e-18, No Iterations 1
smoothSolver:  Solving for e, Initial residual = 0.000894965, Final residual = 3.71543e-17, No Iterations 3
smoothSolver:  Solving for p, Initial residual = 0.000380975, Final residual = 3.05046e-16, No Iterations 2
diagonal:  Solving for rho, Initial residual = 0, Final residual = 0, No Iterations 0
time step continuity errors : sum local = 6.70474e-16, global = -6.05925e-17, cumulative = -5.58687e-16
smoothSolver:  Solving for p, Initial residual = 3.37991e-06, Final residual = 1.16092e-17, No Iterations 2
diagonal:  Solving for rho, Initial residual = 0, Final residual = 0, No Iterations 0
time step continuity errors : sum local = 1.1797e-16, global = 8.65607e-18, cumulative = -5.50031e-16
ExecutionTime = 0.05 s  ClockTime = 0 s

Courant Number mean: 0.000598488 max: 0.0314277
Time = 0.0002

PIMPLE: iteration 1
diagonal:  Solving for rho, Initial residual = 0, Final residual = 0, No Iterations 0
smoothSolver:  Solving for Ux, Initial residual = 0.00769118, Final residual = 2.276e-18, No Iterations 1
smoothSolver:  Solving for e, Initial residual = 0.000858109, Final residual = 3.85281e-17, No Iterations 3
smoothSolver:  Solving for p, Initial residual = 0.000380832, Final residual = 3.03131e-16, No Iterations 2
diagonal:  Solving for rho, Initial residual = 0, Final residual = 0, No Iterations 0
time step continuity errors : sum local = 6.45495e-16, global = -2.52263e-17, cumulative = -5.75257e-16
smoothSolver:  Solving for p, Initial residual = 3.50631e-06, Final residual = 1.33897e-17, No Iterations 2
diagonal:  Solving for rho, Initial residual = 0, Final residual = 0, No Iterations 0
time step continuity errors : sum local = 9.94211e-17, global = 2.62155e-17, cumulative = -5.49042e-16
ExecutionTime = 0.05 s  ClockTime = 0 s

Courant Number mean: 0.000610833 max: 0.0309217
Time = 0.00021

PIMPLE: iteration 1
diagonal:  Solving for rho, Initial residual = 0, Final residual = 0, No Iterations 0
smoothSolver:  Solving for Ux, Initial residual = 0.007371, Final residual = 1.7852e-17, No Iterations 1
smoothSolver:  Solving for e, Initial residual = 0.000819487, Final residual = 3.80946e-17, No Iterations 3
smoothSolver:  Solving for p, Initial residual = 0.000380077, Final residual = 3.04324e-16, No Iterations 2
diagonal:  Solving for rho, Initial residual = 0, Final residual = 0, No Iterations 0
time step continuity errors : sum local = 6.50442e-16, global = -5.04525e-17, cumulative = -5.99494e-16
smoothSolver:  Solving for p, Initial residual = 3.6242e-06, Final residual = 9.53493e-18, No Iterations 2
diagonal:  Solving for rho, Initial residual = 0, Final residual = 0, No Iterations 0
time step continuity errors : sum local = 9.37328e-17, global = 1.36024e-17, cumulative = -5.85892e-16
ExecutionTime = 0.06 s  ClockTime = 0 s

Courant Number mean: 0.000623639 max: 0.0304313
Time = 0.00022

PIMPLE: iteration 1
diagonal:  Solving for rho, Initial residual = 0, Final residual = 0, No Iterations 0
smoothSolver:  Solving for Ux, Initial residual = 0.00708101, Final residual = 6.32106e-18, No Iterations 1
smoothSolver:  Solving for e, Initial residual = 0.000780498, Final residual = 4.13813e-17, No Iterations 3
smoothSolver:  Solving for p, Initial residual = 0.000378848, Final residual = 3.00381e-16, No Iterations 2
diagonal:  Solving for rho, Initial residual = 0, Final residual = 0, No Iterations 0
time step continuity errors : sum local = 6.43764e-16, global = -5.3173e-17, cumulative = -6.39065e-16
smoothSolver:  Solving for p, Initial residual = 3.73187e-06, Final residual = 1.16383e-17, No Iterations 2
diagonal:  Solving for rho, Initial residual = 0, Final residual = 0, No Iterations 0
time step continuity errors : sum local = 9.6206e-17, global = 5.19364e-18, cumulative = -6.33871e-16
ExecutionTime = 0.06 s  ClockTime = 0 s

Courant Number mean: 0.000636845 max: 0.0299616
Time = 0.00023

PIMPLE: iteration 1
diagonal:  Solving for rho, Initial residual = 0, Final residual = 0, No Iterations 0
smoothSolver:  Solving for Ux, Initial residual = 0.00681725, Final residual = 1.00494e-17, No Iterations 1
smoothSolver:  Solving for e, Initial residual = 0.000742044, Final residual = 4.00922e-17, No Iterations 3
smoothSolver:  Solving for p, Initial residual = 0.000377258, Final residual = 2.9805e-16, No Iterations 2
diagonal:  Solving for rho, Initial residual = 0, Final residual = 0, No Iterations 0
time step continuity errors : sum local = 6.38818e-16, global = -6.45495e-17, cumulative = -6.98421e-16
smoothSolver:  Solving for p, Initial residual = 3.82826e-06, Final residual = 1.46886e-17, No Iterations 2
diagonal:  Solving for rho, Initial residual = 0, Final residual = 0, No Iterations 0
time step continuity errors : sum local = 9.57114e-17, global = 7.41949e-19, cumulative = -6.97679e-16
ExecutionTime = 0.06 s  ClockTime = 0 s

Courant Number mean: 0.000650406 max: 0.0295157
Time = 0.00024

PIMPLE: iteration 1
diagonal:  Solving for rho, Initial residual = 0, Final residual = 0, No Iterations 0
smoothSolver:  Solving for Ux, Initial residual = 0.00657644, Final residual = 7.89879e-18, No Iterations 1
smoothSolver:  Solving for e, Initial residual = 0.000724598, Final residual = 4.26528e-17, No Iterations 3
smoothSolver:  Solving for p, Initial residual = 0.000376544, Final residual = 2.99876e-16, No Iterations 2
diagonal:  Solving for rho, Initial residual = 0, Final residual = 0, No Iterations 0
time step continuity errors : sum local = 6.49452e-16, global = -4.35276e-17, cumulative = -7.41207e-16
smoothSolver:  Solving for p, Initial residual = 3.92676e-06, Final residual = 1.15461e-17, No Iterations 2
diagonal:  Solving for rho, Initial residual = 0, Final residual = 0, No Iterations 0
time step continuity errors : sum local = 9.57114e-17, global = 2.05272e-17, cumulative = -7.20679e-16
ExecutionTime = 0.06 s  ClockTime = 0 s

Courant Number mean: 0.000664303 max: 0.0290959
Time = 0.00025

PIMPLE: iteration 1
diagonal:  Solving for rho, Initial residual = 0, Final residual = 0, No Iterations 0
smoothSolver:  Solving for Ux, Initial residual = 0.00644156, Final residual = 1.09235e-17, No Iterations 1
smoothSolver:  Solving for e, Initial residual = 0.000731709, Final residual = 4.42443e-17, No Iterations 3
smoothSolver:  Solving for p, Initial residual = 0.000377956, Final residual = 2.98596e-16, No Iterations 2
diagonal:  Solving for rho, Initial residual = 0, Final residual = 0, No Iterations 0
time step continuity errors : sum local = 6.48216e-16, global = -6.85066e-17, cumulative = -7.89186e-16
smoothSolver:  Solving for p, Initial residual = 4.04363e-06, Final residual = 1.13055e-17, No Iterations 2
diagonal:  Solving for rho, Initial residual = 0, Final residual = 0, No Iterations 0
time step continuity errors : sum local = 1.02636e-16, global = 9.1507e-18, cumulative = -7.80035e-16
ExecutionTime = 0.06 s  ClockTime = 0 s

Courant Number mean: 0.000678539 max: 0.0287031
Time = 0.00026

PIMPLE: iteration 1
diagonal:  Solving for rho, Initial residual = 0, Final residual = 0, No Iterations 0
smoothSolver:  Solving for Ux, Initial residual = 0.00632503, Final residual = 5.82362e-18, No Iterations 1
smoothSolver:  Solving for e, Initial residual = 0.000738399, Final residual = 3.77962e-17, No Iterations 3
smoothSolver:  Solving for p, Initial residual = 0.00037894, Final residual = 2.96037e-16, No Iterations 2
diagonal:  Solving for rho, Initial residual = 0, Final residual = 0, No Iterations 0
time step continuity errors : sum local = 6.27936e-16, global = -4.52589e-17, cumulative = -8.25294e-16
smoothSolver:  Solving for p, Initial residual = 4.14884e-06, Final residual = 1.27805e-17, No Iterations 2
diagonal:  Solving for rho, Initial residual = 0, Final residual = 0, No Iterations 0
time step continuity errors : sum local = 1.06841e-16, global = 5.44096e-18, cumulative = -8.19853e-16
ExecutionTime = 0.06 s  ClockTime = 0 s

Courant Number mean: 0.000693128 max: 0.0283378
Time = 0.00027

PIMPLE: iteration 1
diagonal:  Solving for rho, Initial residual = 0, Final residual = 0, No Iterations 0
smoothSolver:  Solving for Ux, Initial residual = 0.00621019, Final residual = 1.719e-17, No Iterations 1
smoothSolver:  Solving for e, Initial residual = 0.000744729, Final residual = 3.91382e-17, No Iterations 3
smoothSolver:  Solving for p, Initial residual = 0.000379536, Final residual = 2.98946e-16, No Iterations 2
diagonal:  Solving for rho, Initial residual = 0, Final residual = 0, No Iterations 0
time step continuity errors : sum local = 6.33871e-16, global = -5.16891e-17, cumulative = -8.71542e-16
smoothSolver:  Solving for p, Initial residual = 4.24207e-06, Final residual = 1.44838e-17, No Iterations 2
diagonal:  Solving for rho, Initial residual = 0, Final residual = 0, No Iterations 0
time step continuity errors : sum local = 1.04615e-16, global = -8.16143e-18, cumulative = -8.79704e-16
ExecutionTime = 0.06 s  ClockTime = 0 s

Courant Number mean: 0.000708089 max: 0.028
Time = 0.00028

PIMPLE: iteration 1
diagonal:  Solving for rho, Initial residual = 0, Final residual = 0, No Iterations 0
smoothSolver:  Solving for Ux, Initial residual = 0.0060975, Final residual = 8.1392e-18, No Iterations 1
smoothSolver:  Solving for e, Initial residual = 0.000750756, Final residual = 4.66835e-17, No Iterations 3
smoothSolver:  Solving for p, Initial residual = 0.000379785, Final residual = 2.94163e-16, No Iterations 2
diagonal:  Solving for rho, Initial residual = 0, Final residual = 0, No Iterations 0
time step continuity errors : sum local = 6.3857e-16, global = -5.19364e-17, cumulative = -9.3164e-16
smoothSolver:  Solving for p, Initial residual = 4.32259e-06, Final residual = 1.11284e-17, No Iterations 2
diagonal:  Solving for rho, Initial residual = 0, Final residual = 0, No Iterations 0
time step continuity errors : sum local = 1.09314e-16, global = -9.89265e-18, cumulative = -9.41533e-16
ExecutionTime = 0.06 s  ClockTime = 0 s

Courant Number mean: 0.000723438 max: 0.0276898
Time = 0.00029

PIMPLE: iteration 1
diagonal:  Solving for rho, Initial residual = 0, Final residual = 0, No Iterations 0
smoothSolver:  Solving for Ux, Initial residual = 0.0059872, Final residual = 4.10926e-18, No Iterations 1
smoothSolver:  Solving for e, Initial residual = 0.000756547, Final residual = 4.25117e-17, No Iterations 3
smoothSolver:  Solving for p, Initial residual = 0.0003797, Final residual = 2.94236e-16, No Iterations 2
diagonal:  Solving for rho, Initial residual = 0, Final residual = 0, No Iterations 0
time step continuity errors : sum local = 6.48216e-16, global = -5.41622e-17, cumulative = -9.95695e-16
smoothSolver:  Solving for p, Initial residual = 4.39214e-06, Final residual = 1.06146e-17, No Iterations 2
diagonal:  Solving for rho, Initial residual = 0, Final residual = 0, No Iterations 0
time step continuity errors : sum local = 1.07088e-16, global = 1.80541e-17, cumulative = -9.77641e-16
ExecutionTime = 0.06 s  ClockTime = 0 s

Courant Number mean: 0.00073919 max: 0.0274069
Time = 0.0003

PIMPLE: iteration 1
diagonal:  Solving for rho, Initial residual = 0, Final residual = 0, No Iterations 0
smoothSolver:  Solving for Ux, Initial residual = 0.00587954, Final residual = 5.07687e-18, No Iterations 1
smoothSolver:  Solving for e, Initial residual = 0.000762143, Final residual = 3.99326e-17, No Iterations 3
smoothSolver:  Solving for p, Initial residual = 0.000379303, Final residual = 2.93529e-16, No Iterations 2
diagonal:  Solving for rho, Initial residual = 0, Final residual = 0, No Iterations 0
time step continuity errors : sum local = 6.39807e-16, global = -7.49368e-17, cumulative = -1.05258e-15
smoothSolver:  Solving for p, Initial residual = 4.45089e-06, Final residual = 1.65174e-17, No Iterations 2
diagonal:  Solving for rho, Initial residual = 0, Final residual = 0, No Iterations 0
time step continuity errors : sum local = 8.6808e-17, global = 8.65607e-18, cumulative = -1.04392e-15
ExecutionTime = 0.07 s  ClockTime = 0 s

Courant Number mean: 0.000755353 max: 0.0271507
Time = 0.00031

PIMPLE: iteration 1
diagonal:  Solving for rho, Initial residual = 0, Final residual = 0, No Iterations 0
smoothSolver:  Solving for Ux, Initial residual = 0.00577464, Final residual = 1.25182e-17, No Iterations 1
smoothSolver:  Solving for e, Initial residual = 0.000767586, Final residual = 4.37962e-17, No Iterations 3
smoothSolver:  Solving for p, Initial residual = 0.000378615, Final residual = 2.87385e-16, No Iterations 2
diagonal:  Solving for rho, Initial residual = 0, Final residual = 0, No Iterations 0
time step continuity errors : sum local = 6.29914e-16, global = -5.56461e-17, cumulative = -1.09957e-15
smoothSolver:  Solving for p, Initial residual = 4.49894e-06, Final residual = 9.8688e-18, No Iterations 2
diagonal:  Solving for rho, Initial residual = 0, Final residual = 0, No Iterations 0
time step continuity errors : sum local = 9.47221e-17, global = 1.014e-17, cumulative = -1.08943e-15
ExecutionTime = 0.07 s  ClockTime = 0 s

Courant Number mean: 0.000771934 max: 0.0269208
Time = 0.00032

PIMPLE: iteration 1
diagonal:  Solving for rho, Initial residual = 0, Final residual = 0, No Iterations 0
smoothSolver:  Solving for Ux, Initial residual = 0.00567201, Final residual = 1.15767e-17, No Iterations 1
smoothSolver:  Solving for e, Initial residual = 0.00077291, Final residual = 4.06067e-17, No Iterations 3
smoothSolver:  Solving for p, Initial residual = 0.000377654, Final residual = 2.89416e-16, No Iterations 2
diagonal:  Solving for rho, Initial residual = 0, Final residual = 0, No Iterations 0
time step continuity errors : sum local = 6.26947e-16, global = -3.73447e-17, cumulative = -1.12677e-15
smoothSolver:  Solving for p, Initial residual = 4.53642e-06, Final residual = 1.38561e-17, No Iterations 2
diagonal:  Solving for rho, Initial residual = 0, Final residual = 0, No Iterations 0
time step continuity errors : sum local = 1.04615e-16, global = 2.39897e-17, cumulative = -1.10278e-15
ExecutionTime = 0.07 s  ClockTime = 0 s

Courant Number mean: 0.000788926 max: 0.0267166
Time = 0.00033

PIMPLE: iteration 1
diagonal:  Solving for rho, Initial residual = 0, Final residual = 0, No Iterations 0
smoothSolver:  Solving for Ux, Initial residual = 0.00556837, Final residual = 8.54841e-18, No Iterations 1
smoothSolver:  Solving for e, Initial residual = 0.000778147, Final residual = 4.19945e-17, No Iterations 3
smoothSolver:  Solving for p, Initial residual = 0.00037644, Final residual = 2.85747e-16, No Iterations 2
diagonal:  Solving for rho, Initial residual = 0, Final residual = 0, No Iterations 0
time step continuity errors : sum local = 6.21011e-16, global = -5.06998e-17, cumulative = -1.15348e-15
smoothSolver:  Solving for p, Initial residual = 4.56355e-06, Final residual = 1.25753e-17, No Iterations 2
diagonal:  Solving for rho, Initial residual = 0, Final residual = 0, No Iterations 0
time step continuity errors : sum local = 1.11045e-16, global = 8.65607e-18, cumulative = -1.14483e-15
ExecutionTime = 0.07 s  ClockTime = 0 s

Courant Number mean: 0.00080631 max: 0.0265377
Time = 0.00034

PIMPLE: iteration 1
diagonal:  Solving for rho, Initial residual = 0, Final residual = 0, No Iterations 0
smoothSolver:  Solving for Ux, Initial residual = 0.00546391, Final residual = 1.00207e-17, No Iterations 1
smoothSolver:  Solving for e, Initial residual = 0.000783328, Final residual = 4.55233e-17, No Iterations 3
smoothSolver:  Solving for p, Initial residual = 0.000374999, Final residual = 2.86754e-16, No Iterations 2
diagonal:  Solving for rho, Initial residual = 0, Final residual = 0, No Iterations 0
time step continuity errors : sum local = 6.06419e-16, global = -2.8194e-17, cumulative = -1.17302e-15
smoothSolver:  Solving for p, Initial residual = 4.57918e-06, Final residual = 1.17398e-17, No Iterations 2
diagonal:  Solving for rho, Initial residual = 0, Final residual = 0, No Iterations 0
time step continuity errors : sum local = 9.37328e-17, global = 3.70974e-18, cumulative = -1.16931e-15
ExecutionTime = 0.07 s  ClockTime = 0 s

Courant Number mean: 0.000824065 max: 0.0263835
Time = 0.00035

PIMPLE: iteration 1
diagonal:  Solving for rho, Initial residual = 0, Final residual = 0, No Iterations 0
smoothSolver:  Solving for Ux, Initial residual = 0.00536115, Final residual = 9.6869e-18, No Iterations 1
smoothSolver:  Solving for e, Initial residual = 0.00078849, Final residual = 4.31006e-17, No Iterations 3
smoothSolver:  Solving for p, Initial residual = 0.00037337, Final residual = 2.81156e-16, No Iterations 2
diagonal:  Solving for rho, Initial residual = 0, Final residual = 0, No Iterations 0
time step continuity errors : sum local = 6.08645e-16, global = -5.66354e-17, cumulative = -1.22595e-15
smoothSolver:  Solving for p, Initial residual = 4.58049e-06, Final residual = 1.51931e-17, No Iterations 2
diagonal:  Solving for rho, Initial residual = 0, Final residual = 0, No Iterations 0
time step continuity errors : sum local = 1.00658e-16, global = 4.20438e-18, cumulative = -1.22174e-15
ExecutionTime = 0.07 s  ClockTime = 0 s

Courant Number mean: 0.000842169 max: 0.0262535
Time = 0.00036

PIMPLE: iteration 1
diagonal:  Solving for rho, Initial residual = 0, Final residual = 0, No Iterations 0
smoothSolver:  Solving for Ux, Initial residual = 0.00526131, Final residual = 1.17084e-17, No Iterations 1
smoothSolver:  Solving for e, Initial residual = 0.000794534, Final residual = 2.18612e-16, No Iterations 3
smoothSolver:  Solving for p, Initial residual = 0.000371523, Final residual = 2.80979e-16, No Iterations 2
diagonal:  Solving for rho, Initial residual = 0, Final residual = 0, No Iterations 0
time step continuity errors : sum local = 5.89107e-16, global = -4.20438e-17, cumulative = -1.26379e-15
smoothSolver:  Solving for p, Initial residual = 4.57165e-06, Final residual = 1.38281e-17, No Iterations 2
diagonal:  Solving for rho, Initial residual = 0, Final residual = 0, No Iterations 0
time step continuity errors : sum local = 8.77972e-17, global = 1.70648e-17, cumulative = -1.24672e-15
ExecutionTime = 0.07 s  ClockTime = 0 s

Courant Number mean: 0.000860606 max: 0.0261475
Time = 0.00037

PIMPLE: iteration 1
diagonal:  Solving for rho, Initial residual = 0, Final residual = 0, No Iterations 0
smoothSolver:  Solving for Ux, Initial residual = 0.00516453, Final residual = 2.0664e-17, No Iterations 1
smoothSolver:  Solving for e, Initial residual = 0.000803598, Final residual = 2.25051e-16, No Iterations 3
smoothSolver:  Solving for p, Initial residual = 0.00036946, Final residual = 2.81233e-16, No Iterations 2
diagonal:  Solving for rho, Initial residual = 0, Final residual = 0, No Iterations 0
time step continuity errors : sum local = 6.1928e-16, global = -5.29257e-17, cumulative = -1.29965e-15
smoothSolver:  Solving for p, Initial residual = 4.55521e-06, Final residual = 1.48483e-17, No Iterations 2
diagonal:  Solving for rho, Initial residual = 0, Final residual = 0, No Iterations 0
time step continuity errors : sum local = 1.10303e-16, global = 1.4839e-18, cumulative = -1.29816e-15
ExecutionTime = 0.07 s  ClockTime = 0 s

Courant Number mean: 0.000879362 max: 0.0260649
Time = 0.00038

PIMPLE: iteration 1
diagonal:  Solving for rho, Initial residual = 0, Final residual = 0, No Iterations 0
smoothSolver:  Solving for Ux, Initial residual = 0.00507075, Final residual = 1.62972e-17, No Iterations 1
smoothSolver:  Solving for e, Initial residual = 0.000812843, Final residual = 2.34283e-16, No Iterations 3
smoothSolver:  Solving for p, Initial residual = 0.000367222, Final residual = 2.79331e-16, No Iterations 2
diagonal:  Solving for rho, Initial residual = 0, Final residual = 0, No Iterations 0
time step continuity errors : sum local = 5.93806e-16, global = -5.66354e-17, cumulative = -1.3548e-15
smoothSolver:  Solving for p, Initial residual = 4.52933e-06, Final residual = 1.2969e-17, No Iterations 2
diagonal:  Solving for rho, Initial residual = 0, Final residual = 0, No Iterations 0
time step continuity errors : sum local = 1.07088e-16, global = -3.70974e-18, cumulative = -1.35851e-15
ExecutionTime = 0.07 s  ClockTime = 0 s

Courant Number mean: 0.00089843 max: 0.0260058
Time = 0.00039

PIMPLE: iteration 1
diagonal:  Solving for rho, Initial residual = 0, Final residual = 0, No Iterations 0
smoothSolver:  Solving for Ux, Initial residual = 0.00497992, Final residual = 8.48807e-18, No Iterations 1
smoothSolver:  Solving for e, Initial residual = 0.000822285, Final residual = 2.52526e-16, No Iterations 3
smoothSolver:  Solving for p, Initial residual = 0.000364822, Final residual = 2.72667e-16, No Iterations 2
diagonal:  Solving for rho, Initial residual = 0, Final residual = 0, No Iterations 0
time step continuity errors : sum local = 5.96032e-16, global = -4.60008e-17, cumulative = -1.40451e-15
smoothSolver:  Solving for p, Initial residual = 4.49423e-06, Final residual = 1.06175e-17, No Iterations 2
diagonal:  Solving for rho, Initial residual = 0, Final residual = 0, No Iterations 0
time step continuity errors : sum local = 1.03873e-16, global = 1.4839e-18, cumulative = -1.40302e-15
ExecutionTime = 0.08 s  ClockTime = 0 s

Courant Number mean: 0.000917809 max: 0.0259698
Time = 0.0004

PIMPLE: iteration 1
diagonal:  Solving for rho, Initial residual = 0, Final residual = 0, No Iterations 0
smoothSolver:  Solving for Ux, Initial residual = 0.00489199, Final residual = 9.97221e-18, No Iterations 1
smoothSolver:  Solving for e, Initial residual = 0.00083456, Final residual = 2.67228e-16, No Iterations 3
smoothSolver:  Solving for p, Initial residual = 0.000362256, Final residual = 2.7656e-16, No Iterations 2
diagonal:  Solving for rho, Initial residual = 0, Final residual = 0, No Iterations 0
time step continuity errors : sum local = 6.00484e-16, global = -2.17638e-17, cumulative = -1.42479e-15
smoothSolver:  Solving for p, Initial residual = 4.45237e-06, Final residual = 1.31316e-17, No Iterations 2
diagonal:  Solving for rho, Initial residual = 0, Final residual = 0, No Iterations 0
time step continuity errors : sum local = 1.03131e-16, global = -2.47316e-19, cumulative = -1.42504e-15
ExecutionTime = 0.08 s  ClockTime = 0 s

Courant Number mean: 0.000937505 max: 0.0259573
Time = 0.00041

PIMPLE: iteration 1
diagonal:  Solving for rho, Initial residual = 0, Final residual = 0, No Iterations 0
smoothSolver:  Solving for Ux, Initial residual = 0.00480702, Final residual = 8.71168e-18, No Iterations 1
smoothSolver:  Solving for e, Initial residual = 0.000851002, Final residual = 3.03667e-16, No Iterations 3
smoothSolver:  Solving for p, Initial residual = 0.000359524, Final residual = 2.76473e-16, No Iterations 2
diagonal:  Solving for rho, Initial residual = 0, Final residual = 0, No Iterations 0
time step continuity errors : sum local = 5.89107e-16, global = -1.78068e-17, cumulative = -1.44284e-15
smoothSolver:  Solving for p, Initial residual = 4.40531e-06, Final residual = 1.45752e-17, No Iterations 2
diagonal:  Solving for rho, Initial residual = 0, Final residual = 0, No Iterations 0
time step continuity errors : sum local = 1.15744e-16, global = 2.37424e-17, cumulative = -1.4191e-15
ExecutionTime = 0.08 s  ClockTime = 0 s

Courant Number mean: 0.000957529 max: 0.0259684
Time = 0.00042

PIMPLE: iteration 1
diagonal:  Solving for rho, Initial residual = 0, Final residual = 0, No Iterations 0
smoothSolver:  Solving for Ux, Initial residual = 0.00472512, Final residual = 8.02534e-18, No Iterations 1
smoothSolver:  Solving for e, Initial residual = 0.000867695, Final residual = 3.47787e-16, No Iterations 3
smoothSolver:  Solving for p, Initial residual = 0.000356621, Final residual = 2.76877e-16, No Iterations 2
diagonal:  Solving for rho, Initial residual = 0, Final residual = 0, No Iterations 0
time step continuity errors : sum local = 5.92322e-16, global = -4.87213e-17, cumulative = -1.46782e-15
smoothSolver:  Solving for p, Initial residual = 4.34907e-06, Final residual = 1.21273e-17, No Iterations 2
diagonal:  Solving for rho, Initial residual = 0, Final residual = 0, No Iterations 0
time step continuity errors : sum local = 1.04862e-16, global = 1.33551e-17, cumulative = -1.45447e-15
ExecutionTime = 0.08 s  ClockTime = 0 s

Courant Number mean: 0.000977901 max: 0.0263537
Time = 0.00043

PIMPLE: iteration 1
diagonal:  Solving for rho, Initial residual = 0, Final residual = 0, No Iterations 0
smoothSolver:  Solving for Ux, Initial residual = 0.00464618, Final residual = 1.34585e-17, No Iterations 1
smoothSolver:  Solving for e, Initial residual = 0.000884661, Final residual = 3.99716e-16, No Iterations 3
smoothSolver:  Solving for p, Initial residual = 0.000353527, Final residual = 2.72668e-16, No Iterations 2
diagonal:  Solving for rho, Initial residual = 0, Final residual = 0, No Iterations 0
time step continuity errors : sum local = 5.81688e-16, global = -4.10545e-17, cumulative = -1.49552e-15
smoothSolver:  Solving for p, Initial residual = 4.28375e-06, Final residual = 1.45242e-17, No Iterations 2
diagonal:  Solving for rho, Initial residual = 0, Final residual = 0, No Iterations 0
time step continuity errors : sum local = 1.03131e-16, global = -1.75594e-17, cumulative = -1.51308e-15
ExecutionTime = 0.09 s  ClockTime = 0 s

Courant Number mean: 0.000998646 max: 0.0267873
Time = 0.00044

PIMPLE: iteration 1
diagonal:  Solving for rho, Initial residual = 0, Final residual = 0, No Iterations 0
smoothSolver:  Solving for Ux, Initial residual = 0.00457005, Final residual = 6.99822e-18, No Iterations 1
smoothSolver:  Solving for e, Initial residual = 0.00090205, Final residual = 4.70546e-16, No Iterations 3
smoothSolver:  Solving for p, Initial residual = 0.00035028, Final residual = 2.71766e-16, No Iterations 2
diagonal:  Solving for rho, Initial residual = 0, Final residual = 0, No Iterations 0
time step continuity errors : sum local = 5.77236e-16, global = -1.97853e-17, cumulative = -1.53287e-15
smoothSolver:  Solving for p, Initial residual = 4.2102e-06, Final residual = 1.22457e-17, No Iterations 2
diagonal:  Solving for rho, Initial residual = 0, Final residual = 0, No Iterations 0
time step continuity errors : sum local = 1.00163e-16, global = -2.22585e-18, cumulative = -1.53509e-15
ExecutionTime = 0.09 s  ClockTime = 0 s

Courant Number mean: 0.0010198 max: 0.0272101
Time = 0.00045

PIMPLE: iteration 1
diagonal:  Solving for rho, Initial residual = 0, Final residual = 0, No Iterations 0
smoothSolver:  Solving for Ux, Initial residual = 0.00449659, Final residual = 2.36174e-17, No Iterations 1
smoothSolver:  Solving for e, Initial residual = 0.000928053, Final residual = 5.86558e-16, No Iterations 3
smoothSolver:  Solving for p, Initial residual = 0.000346891, Final residual = 2.65989e-16, No Iterations 2
diagonal:  Solving for rho, Initial residual = 0, Final residual = 0, No Iterations 0
time step continuity errors : sum local = 5.84903e-16, global = -3.04199e-17, cumulative = -1.56551e-15
smoothSolver:  Solving for p, Initial residual = 4.1276e-06, Final residual = 1.40205e-17, No Iterations 2
diagonal:  Solving for rho, Initial residual = 0, Final residual = 0, No Iterations 0
time step continuity errors : sum local = 1.03873e-16, global = 1.83014e-17, cumulative = -1.54721e-15
ExecutionTime = 0.09 s  ClockTime = 0 s

Courant Number mean: 0.00104142 max: 0.0276247
Time = 0.00046

PIMPLE: iteration 1
diagonal:  Solving for rho, Initial residual = 0, Final residual = 0, No Iterations 0
smoothSolver:  Solving for Ux, Initial residual = 0.00442589, Final residual = 9.58353e-18, No Iterations 1
smoothSolver:  Solving for e, Initial residual = 0.000953671, Final residual = 7.32485e-16, No Iterations 3
smoothSolver:  Solving for p, Initial residual = 0.000343375, Final residual = 2.69112e-16, No Iterations 2
diagonal:  Solving for rho, Initial residual = 0, Final residual = 0, No Iterations 0
time step continuity errors : sum local = 5.7229e-16, global = -3.11618e-17, cumulative = -1.57837e-15
smoothSolver:  Solving for p, Initial residual = 4.15682e-06, Final residual = 1.37371e-17, No Iterations 2
diagonal:  Solving for rho, Initial residual = 0, Final residual = 0, No Iterations 0
time step continuity errors : sum local = 1.10056e-16, global = -2.39897e-17, cumulative = -1.60236e-15
ExecutionTime = 0.09 s  ClockTime = 0 s

Courant Number mean: 0.0010634 max: 0.0280244
Time = 0.00047

PIMPLE: iteration 1
diagonal:  Solving for rho, Initial residual = 0, Final residual = 0, No Iterations 0
smoothSolver:  Solving for Ux, Initial residual = 0.00435781, Final residual = 2.08285e-17, No Iterations 1
smoothSolver:  Solving for e, Initial residual = 0.000976819, Final residual = 8.69851e-16, No Iterations 3
smoothSolver:  Solving for p, Initial residual = 0.000350548, Final residual = 2.77266e-16, No Iterations 2
diagonal:  Solving for rho, Initial residual = 0, Final residual = 0, No Iterations 0
time step continuity errors : sum local = 5.98505e-16, global = -2.76994e-17, cumulative = -1.63006e-15
smoothSolver:  Solving for p, Initial residual = 4.38831e-06, Final residual = 1.34846e-17, No Iterations 2
diagonal:  Solving for rho, Initial residual = 0, Final residual = 0, No Iterations 0
time step continuity errors : sum local = 9.99157e-17, global = -1.97853e-18, cumulative = -1.63204e-15
ExecutionTime = 0.09 s  ClockTime = 0 s

Courant Number mean: 0.00108542 max: 0.0283899
Time = 0.00048

PIMPLE: iteration 1
diagonal:  Solving for rho, Initial residual = 0, Final residual = 0, No Iterations 0
smoothSolver:  Solving for Ux, Initial residual = 0.00429234, Final residual = 2.50642e-17, No Iterations 1
smoothSolver:  Solving for e, Initial residual = 0.000996469, Final residual = 3.76642e-17, No Iterations 4
smoothSolver:  Solving for p, Initial residual = 0.000359942, Final residual = 2.80085e-16, No Iterations 2
diagonal:  Solving for rho, Initial residual = 0, Final residual = 0, No Iterations 0
time step continuity errors : sum local = 6.03699e-16, global = -2.39897e-17, cumulative = -1.65603e-15
smoothSolver:  Solving for p, Initial residual = 4.60292e-06, Final residual = 1.68877e-17, No Iterations 2
diagonal:  Solving for rho, Initial residual = 0, Final residual = 0, No Iterations 0
time step continuity errors : sum local = 1.16733e-16, global = -8.90338e-18, cumulative = -1.66493e-15
ExecutionTime = 0.09 s  ClockTime = 0 s

Courant Number mean: 0.00110723 max: 0.0287062
Time = 0.00049

PIMPLE: iteration 1
diagonal:  Solving for rho, Initial residual = 0, Final residual = 0, No Iterations 0
smoothSolver:  Solving for Ux, Initial residual = 0.00422945, Final residual = 9.61492e-18, No Iterations 1
smoothSolver:  Solving for e, Initial residual = 0.00101173, Final residual = 4.44049e-17, No Iterations 4
smoothSolver:  Solving for p, Initial residual = 0.000368312, Final residual = 2.86889e-16, No Iterations 2
diagonal:  Solving for rho, Initial residual = 0, Final residual = 0, No Iterations 0
time step continuity errors : sum local = 5.99742e-16, global = -1.50863e-17, cumulative = -1.68002e-15
smoothSolver:  Solving for p, Initial residual = 4.79308e-06, Final residual = 1.44118e-17, No Iterations 2
diagonal:  Solving for rho, Initial residual = 0, Final residual = 0, No Iterations 0
time step continuity errors : sum local = 1.05357e-16, global = 9.89265e-18, cumulative = -1.67013e-15
ExecutionTime = 0.09 s  ClockTime = 0 s

Courant Number mean: 0.00112862 max: 0.0289643
Time = 0.0005

PIMPLE: iteration 1
diagonal:  Solving for rho, Initial residual = 0, Final residual = 0, No Iterations 0
smoothSolver:  Solving for Ux, Initial residual = 0.00416903, Final residual = 1.75604e-17, No Iterations 1
smoothSolver:  Solving for e, Initial residual = 0.00102202, Final residual = 4.56313e-17, No Iterations 4
smoothSolver:  Solving for p, Initial residual = 0.000375485, Final residual = 2.9131e-16, No Iterations 2
diagonal:  Solving for rho, Initial residual = 0, Final residual = 0, No Iterations 0
time step continuity errors : sum local = 6.22742e-16, global = -1.38497e-17, cumulative = -1.68398e-15
smoothSolver:  Solving for p, Initial residual = 4.95215e-06, Final residual = 1.81574e-17, No Iterations 2
diagonal:  Solving for rho, Initial residual = 0, Final residual = 0, No Iterations 0
time step continuity errors : sum local = 1.10798e-16, global = 9.89265e-19, cumulative = -1.68299e-15
ExecutionTime = 0.1 s  ClockTime = 0 s

Courant Number mean: 0.0011495 max: 0.0291619
Time = 0.00051

PIMPLE: iteration 1
diagonal:  Solving for rho, Initial residual = 0, Final residual = 0, No Iterations 0
smoothSolver:  Solving for Ux, Initial residual = 0.00411089, Final residual = 1.91329e-17, No Iterations 1
smoothSolver:  Solving for e, Initial residual = 0.00102709, Final residual = 4.36269e-17, No Iterations 4
smoothSolver:  Solving for p, Initial residual = 0.000381361, Final residual = 2.95992e-16, No Iterations 2
diagonal:  Solving for rho, Initial residual = 0, Final residual = 0, No Iterations 0
time step continuity errors : sum local = 6.22989e-16, global = -3.04199e-17, cumulative = -1.71341e-15
smoothSolver:  Solving for p, Initial residual = 5.07892e-06, Final residual = 1.43524e-17, No Iterations 2
diagonal:  Solving for rho, Initial residual = 0, Final residual = 0, No Iterations 0
time step continuity errors : sum local = 9.94211e-17, global = 3.46243e-18, cumulative = -1.70994e-15
ExecutionTime = 0.1 s  ClockTime = 0 s

Courant Number mean: 0.00116986 max: 0.029302
Time = 0.00052

PIMPLE: iteration 1
diagonal:  Solving for rho, Initial residual = 0, Final residual = 0, No Iterations 0
smoothSolver:  Solving for Ux, Initial residual = 0.00405475, Final residual = 8.27334e-18, No Iterations 1
smoothSolver:  Solving for e, Initial residual = 0.00102703, Final residual = 4.33068e-17, No Iterations 4
smoothSolver:  Solving for p, Initial residual = 0.000385937, Final residual = 2.98431e-16, No Iterations 2
diagonal:  Solving for rho, Initial residual = 0, Final residual = 0, No Iterations 0
time step continuity errors : sum local = 6.18043e-16, global = -1.45917e-17, cumulative = -1.72454e-15
smoothSolver:  Solving for p, Initial residual = 5.17251e-06, Final residual = 1.44788e-17, No Iterations 2
diagonal:  Solving for rho, Initial residual = 0, Final residual = 0, No Iterations 0
time step continuity errors : sum local = 1.06099e-16, global = 2.25058e-17, cumulative = -1.70203e-15
ExecutionTime = 0.1 s  ClockTime = 0 s

Courant Number mean: 0.00118975 max: 0.0293912
Time = 0.00053

PIMPLE: iteration 1
diagonal:  Solving for rho, Initial residual = 0, Final residual = 0, No Iterations 0
smoothSolver:  Solving for Ux, Initial residual = 0.00400029, Final residual = 2.71877e-17, No Iterations 1
smoothSolver:  Solving for e, Initial residual = 0.0010271, Final residual = 4.48752e-17, No Iterations 4
smoothSolver:  Solving for p, Initial residual = 0.000389856, Final residual = 2.98164e-16, No Iterations 2
diagonal:  Solving for rho, Initial residual = 0, Final residual = 0, No Iterations 0
time step continuity errors : sum local = 6.03946e-16, global = -1.23658e-17, cumulative = -1.7144e-15
smoothSolver:  Solving for p, Initial residual = 5.24768e-06, Final residual = 1.3849e-17, No Iterations 2
diagonal:  Solving for rho, Initial residual = 0, Final residual = 0, No Iterations 0
time step continuity errors : sum local = 9.81845e-17, global = 1.06346e-17, cumulative = -1.70376e-15
ExecutionTime = 0.1 s  ClockTime = 0 s

Courant Number mean: 0.00120924 max: 0.0294379
Time = 0.00054

PIMPLE: iteration 1
diagonal:  Solving for rho, Initial residual = 0, Final residual = 0, No Iterations 0
smoothSolver:  Solving for Ux, Initial residual = 0.00394682, Final residual = 5.06623e-18, No Iterations 1
smoothSolver:  Solving for e, Initial residual = 0.00102811, Final residual = 4.55756e-17, No Iterations 4
smoothSolver:  Solving for p, Initial residual = 0.000393332, Final residual = 3.01641e-16, No Iterations 2
diagonal:  Solving for rho, Initial residual = 0, Final residual = 0, No Iterations 0
time step continuity errors : sum local = 6.16065e-16, global = -1.11292e-17, cumulative = -1.71489e-15
smoothSolver:  Solving for p, Initial residual = 5.30926e-06, Final residual = 1.20446e-17, No Iterations 2
diagonal:  Solving for rho, Initial residual = 0, Final residual = 0, No Iterations 0
time step continuity errors : sum local = 1.01894e-16, global = 1.33551e-17, cumulative = -1.70154e-15
ExecutionTime = 0.1 s  ClockTime = 0 s

Courant Number mean: 0.00122843 max: 0.0294509
Time = 0.00055

PIMPLE: iteration 1
diagonal:  Solving for rho, Initial residual = 0, Final residual = 0, No Iterations 0
smoothSolver:  Solving for Ux, Initial residual = 0.0038941, Final residual = 6.30446e-18, No Iterations 1
smoothSolver:  Solving for e, Initial residual = 0.00102581, Final residual = 9.36698e-16, No Iterations 3
smoothSolver:  Solving for p, Initial residual = 0.000395914, Final residual = 3.00602e-16, No Iterations 2
diagonal:  Solving for rho, Initial residual = 0, Final residual = 0, No Iterations 0
time step continuity errors : sum local = 6.19527e-16, global = -1.4097e-17, cumulative = -1.71563e-15
smoothSolver:  Solving for p, Initial residual = 5.34596e-06, Final residual = 1.36723e-17, No Iterations 2
diagonal:  Solving for rho, Initial residual = 0, Final residual = 0, No Iterations 0
time step continuity errors : sum local = 9.91738e-17, global = 1.73121e-18, cumulative = -1.7139e-15
ExecutionTime = 0.1 s  ClockTime = 0 s

Courant Number mean: 0.00124741 max: 0.0294385
Time = 0.00056

PIMPLE: iteration 1
diagonal:  Solving for rho, Initial residual = 0, Final residual = 0, No Iterations 0
smoothSolver:  Solving for Ux, Initial residual = 0.00384205, Final residual = 1.0797e-17, No Iterations 1
smoothSolver:  Solving for e, Initial residual = 0.00102103, Final residual = 8.04745e-16, No Iterations 3
smoothSolver:  Solving for p, Initial residual = 0.000397685, Final residual = 3.0063e-16, No Iterations 2
diagonal:  Solving for rho, Initial residual = 0, Final residual = 0, No Iterations 0
time step continuity errors : sum local = 6.19527e-16, global = -2.22585e-18, cumulative = -1.71613e-15
smoothSolver:  Solving for p, Initial residual = 5.35932e-06, Final residual = 1.43329e-17, No Iterations 2
diagonal:  Solving for rho, Initial residual = 0, Final residual = 0, No Iterations 0
time step continuity errors : sum local = 9.89265e-17, global = 7.41949e-18, cumulative = -1.70871e-15
ExecutionTime = 0.1 s  ClockTime = 0 s

Courant Number mean: 0.00126628 max: 0.029408
Time = 0.00057

PIMPLE: iteration 1
diagonal:  Solving for rho, Initial residual = 0, Final residual = 0, No Iterations 0
smoothSolver:  Solving for Ux, Initial residual = 0.00379054, Final residual = 1.97564e-17, No Iterations 1
smoothSolver:  Solving for e, Initial residual = 0.00101404, Final residual = 5.2605e-16, No Iterations 3
smoothSolver:  Solving for p, Initial residual = 0.00039873, Final residual = 3.07081e-16, No Iterations 2
diagonal:  Solving for rho, Initial residual = 0, Final residual = 0, No Iterations 0
time step continuity errors : sum local = 6.2571e-16, global = -1.38497e-17, cumulative = -1.72256e-15
smoothSolver:  Solving for p, Initial residual = 5.34954e-06, Final residual = 1.70473e-17, No Iterations 2
diagonal:  Solving for rho, Initial residual = 0, Final residual = 0, No Iterations 0
time step continuity errors : sum local = 1.14755e-16, global = 2.47316e-18, cumulative = -1.72008e-15
ExecutionTime = 0.1 s  ClockTime = 0 s

Courant Number mean: 0.00128508 max: 0.0293655
Time = 0.00058

PIMPLE: iteration 1
diagonal:  Solving for rho, Initial residual = 0, Final residual = 0, No Iterations 0
smoothSolver:  Solving for Ux, Initial residual = 0.00373895, Final residual = 7.01626e-18, No Iterations 1
smoothSolver:  Solving for e, Initial residual = 0.0010048, Final residual = 1.90446e-16, No Iterations 3
smoothSolver:  Solving for p, Initial residual = 0.000399073, Final residual = 3.04231e-16, No Iterations 2
diagonal:  Solving for rho, Initial residual = 0, Final residual = 0, No Iterations 0
time step continuity errors : sum local = 6.34119e-16, global = 3.46243e-18, cumulative = -1.71662e-15
smoothSolver:  Solving for p, Initial residual = 5.3171e-06, Final residual = 1.46609e-17, No Iterations 2
diagonal:  Solving for rho, Initial residual = 0, Final residual = 0, No Iterations 0
time step continuity errors : sum local = 9.81845e-17, global = -2.47316e-19, cumulative = -1.71687e-15
ExecutionTime = 0.1 s  ClockTime = 0 s

Courant Number mean: 0.00130387 max: 0.0293159
Time = 0.00059

PIMPLE: iteration 1
diagonal:  Solving for rho, Initial residual = 0, Final residual = 0, No Iterations 0
smoothSolver:  Solving for Ux, Initial residual = 0.00374018, Final residual = 1.0156e-17, No Iterations 1
smoothSolver:  Solving for e, Initial residual = 0.00100577, Final residual = 2.28016e-16, No Iterations 3
smoothSolver:  Solving for p, Initial residual = 0.000398765, Final residual = 3.07919e-16, No Iterations 2
diagonal:  Solving for rho, Initial residual = 0, Final residual = 0, No Iterations 0
time step continuity errors : sum local = 6.54646e-16, global = 1.23658e-18, cumulative = -1.71563e-15
smoothSolver:  Solving for p, Initial residual = 5.26308e-06, Final residual = 1.37702e-17, No Iterations 2
diagonal:  Solving for rho, Initial residual = 0, Final residual = 0, No Iterations 0
time step continuity errors : sum local = 1.0412e-16, global = 2.20111e-17, cumulative = -1.69362e-15
ExecutionTime = 0.11 s  ClockTime = 0 s

Courant Number mean: 0.0013227 max: 0.029263
Time = 0.0006

PIMPLE: iteration 1
diagonal:  Solving for rho, Initial residual = 0, Final residual = 0, No Iterations 0
smoothSolver:  Solving for Ux, Initial residual = 0.00374904, Final residual = 2.43881e-17, No Iterations 1
smoothSolver:  Solving for e, Initial residual = 0.00103069, Final residual = 5.69915e-16, No Iterations 3
smoothSolver:  Solving for p, Initial residual = 0.000397159, Final residual = 3.02479e-16, No Iterations 2
diagonal:  Solving for rho, Initial residual = 0, Final residual = 0, No Iterations 0
time step continuity errors : sum local = 6.2571e-16, global = -1.33551e-17, cumulative = -1.70698e-15
smoothSolver:  Solving for p, Initial residual = 5.16833e-06, Final residual = 1.28713e-17, No Iterations 2
diagonal:  Solving for rho, Initial residual = 0, Final residual = 0, No Iterations 0
time step continuity errors : sum local = 1.06841e-16, global = -8.40875e-18, cumulative = -1.71539e-15
ExecutionTime = 0.11 s  ClockTime = 0 s

Courant Number mean: 0.00134157 max: 0.02921
Time = 0.00061

PIMPLE: iteration 1
diagonal:  Solving for rho, Initial residual = 0, Final residual = 0, No Iterations 0
smoothSolver:  Solving for Ux, Initial residual = 0.00375287, Final residual = 1.37538e-17, No Iterations 1
smoothSolver:  Solving for e, Initial residual = 0.0010532, Final residual = 9.68696e-16, No Iterations 3
smoothSolver:  Solving for p, Initial residual = 0.000392825, Final residual = 3.0236e-16, No Iterations 2
diagonal:  Solving for rho, Initial residual = 0, Final residual = 0, No Iterations 0
time step continuity errors : sum local = 6.19032e-16, global = -3.21511e-18, cumulative = -1.7186e-15
smoothSolver:  Solving for p, Initial residual = 4.9906e-06, Final residual = 1.9559e-17, No Iterations 2
diagonal:  Solving for rho, Initial residual = 0, Final residual = 0, No Iterations 0
time step continuity errors : sum local = 9.44748e-17, global = -5.93559e-18, cumulative = -1.72454e-15
ExecutionTime = 0.11 s  ClockTime = 0 s

Courant Number mean: 0.00136053 max: 0.0291592
Time = 0.00062

PIMPLE: iteration 1
diagonal:  Solving for rho, Initial residual = 0, Final residual = 0, No Iterations 0
smoothSolver:  Solving for Ux, Initial residual = 0.00375086, Final residual = 8.99053e-18, No Iterations 1
smoothSolver:  Solving for e, Initial residual = 0.00107811, Final residual = 4.46795e-17, No Iterations 4
smoothSolver:  Solving for p, Initial residual = 0.000388227, Final residual = 2.99274e-16, No Iterations 2
diagonal:  Solving for rho, Initial residual = 0, Final residual = 0, No Iterations 0
time step continuity errors : sum local = 6.11366e-16, global = 9.39802e-18, cumulative = -1.71514e-15
smoothSolver:  Solving for p, Initial residual = 4.80521e-06, Final residual = 1.66425e-17, No Iterations 2
diagonal:  Solving for rho, Initial residual = 0, Final residual = 0, No Iterations 0
time step continuity errors : sum local = 8.92811e-17, global = -2.22585e-18, cumulative = -1.71736e-15
ExecutionTime = 0.11 s  ClockTime = 0 s

Courant Number mean: 0.00137958 max: 0.0291124
Time = 0.00063

PIMPLE: iteration 1
diagonal:  Solving for rho, Initial residual = 0, Final residual = 0, No Iterations 0
smoothSolver:  Solving for Ux, Initial residual = 0.00374346, Final residual = 1.17903e-17, No Iterations 1
smoothSolver:  Solving for e, Initial residual = 0.0010998, Final residual = 4.13309e-17, No Iterations 4
smoothSolver:  Solving for p, Initial residual = 0.000383445, Final residual = 3.0187e-16, No Iterations 2
diagonal:  Solving for rho, Initial residual = 0, Final residual = 0, No Iterations 0
time step continuity errors : sum local = 6.35355e-16, global = -7.17217e-18, cumulative = -1.72454e-15
smoothSolver:  Solving for p, Initial residual = 4.60893e-06, Final residual = 1.43925e-17, No Iterations 2
diagonal:  Solving for rho, Initial residual = 0, Final residual = 0, No Iterations 0
time step continuity errors : sum local = 1.09066e-16, global = 1.11292e-17, cumulative = -1.71341e-15
ExecutionTime = 0.11 s  ClockTime = 0 s

Courant Number mean: 0.00139873 max: 0.029071
Time = 0.00064

PIMPLE: iteration 1
diagonal:  Solving for rho, Initial residual = 0, Final residual = 0, No Iterations 0
smoothSolver:  Solving for Ux, Initial residual = 0.00373101, Final residual = 1.08197e-17, No Iterations 1
smoothSolver:  Solving for e, Initial residual = 0.0011139, Final residual = 4.2764e-17, No Iterations 4
smoothSolver:  Solving for p, Initial residual = 0.000378185, Final residual = 3.00057e-16, No Iterations 2
diagonal:  Solving for rho, Initial residual = 0, Final residual = 0, No Iterations 0
time step continuity errors : sum local = 6.22989e-16, global = -6.1829e-18, cumulative = -1.71959e-15
smoothSolver:  Solving for p, Initial residual = 4.39427e-06, Final residual = 1.38967e-17, No Iterations 2
diagonal:  Solving for rho, Initial residual = 0, Final residual = 0, No Iterations 0
time step continuity errors : sum local = 9.99157e-17, global = 7.41949e-18, cumulative = -1.71217e-15
ExecutionTime = 0.11 s  ClockTime = 0 s

Courant Number mean: 0.00141799 max: 0.0290357
Time = 0.00065

PIMPLE: iteration 1
diagonal:  Solving for rho, Initial residual = 0, Final residual = 0, No Iterations 0
smoothSolver:  Solving for Ux, Initial residual = 0.00371374, Final residual = 1.19247e-17, No Iterations 1
smoothSolver:  Solving for e, Initial residual = 0.00111646, Final residual = 4.37613e-17, No Iterations 4
smoothSolver:  Solving for p, Initial residual = 0.000372278, Final residual = 2.95154e-16, No Iterations 2
diagonal:  Solving for rho, Initial residual = 0, Final residual = 0, No Iterations 0
time step continuity errors : sum local = 6.08151e-16, global = 4.20438e-18, cumulative = -1.70797e-15
smoothSolver:  Solving for p, Initial residual = 4.15764e-06, Final residual = 1.93988e-17, No Iterations 2
diagonal:  Solving for rho, Initial residual = 0, Final residual = 0, No Iterations 0
time step continuity errors : sum local = 9.47221e-17, global = 4.20438e-18, cumulative = -1.70376e-15
ExecutionTime = 0.11 s  ClockTime = 0 s

Courant Number mean: 0.00143737 max: 0.0290073
Time = 0.00066

PIMPLE: iteration 1
diagonal:  Solving for rho, Initial residual = 0, Final residual = 0, No Iterations 0
smoothSolver:  Solving for Ux, Initial residual = 0.00369018, Final residual = 1.19601e-17, No Iterations 1
smoothSolver:  Solving for e, Initial residual = 0.00111725, Final residual = 3.73782e-17, No Iterations 4
smoothSolver:  Solving for p, Initial residual = 0.000366448, Final residual = 2.93568e-16, No Iterations 2
diagonal:  Solving for rho, Initial residual = 0, Final residual = 0, No Iterations 0
time step continuity errors : sum local = 6.00484e-16, global = 8.90338e-18, cumulative = -1.69486e-15
smoothSolver:  Solving for p, Initial residual = 3.91818e-06, Final residual = 1.61294e-17, No Iterations 2
diagonal:  Solving for rho, Initial residual = 0, Final residual = 0, No Iterations 0
time step continuity errors : sum local = 1.08324e-16, global = 1.97853e-17, cumulative = -1.67507e-15
ExecutionTime = 0.11 s  ClockTime = 0 s

Courant Number mean: 0.00145688 max: 0.0289861
Time = 0.00067

PIMPLE: iteration 1
diagonal:  Solving for rho, Initial residual = 0, Final residual = 0, No Iterations 0
smoothSolver:  Solving for Ux, Initial residual = 0.00366131, Final residual = 9.77979e-18, No Iterations 1
smoothSolver:  Solving for e, Initial residual = 0.00111656, Final residual = 4.03698e-17, No Iterations 4
smoothSolver:  Solving for p, Initial residual = 0.000360702, Final residual = 2.87311e-16, No Iterations 2
diagonal:  Solving for rho, Initial residual = 0, Final residual = 0, No Iterations 0
time step continuity errors : sum local = 5.8886e-16, global = 8.16143e-18, cumulative = -1.66691e-15
smoothSolver:  Solving for p, Initial residual = 3.78498e-06, Final residual = 1.43594e-17, No Iterations 2
diagonal:  Solving for rho, Initial residual = 0, Final residual = 0, No Iterations 0
time step continuity errors : sum local = 1.06099e-16, global = 7.6668e-18, cumulative = -1.65924e-15
ExecutionTime = 0.11 s  ClockTime = 0 s

Courant Number mean: 0.00147651 max: 0.0289725
Time = 0.00068

PIMPLE: iteration 1
diagonal:  Solving for rho, Initial residual = 0, Final residual = 0, No Iterations 0
smoothSolver:  Solving for Ux, Initial residual = 0.00362811, Final residual = 1.40732e-17, No Iterations 1
smoothSolver:  Solving for e, Initial residual = 0.00111719, Final residual = 4.30631e-17, No Iterations 4
smoothSolver:  Solving for p, Initial residual = 0.000355029, Final residual = 2.90781e-16, No Iterations 2
diagonal:  Solving for rho, Initial residual = 0, Final residual = 0, No Iterations 0
time step continuity errors : sum local = 6.01226e-16, global = 1.73121e-18, cumulative = -1.65751e-15
smoothSolver:  Solving for p, Initial residual = 3.77977e-06, Final residual = 1.41057e-17, No Iterations 2
diagonal:  Solving for rho, Initial residual = 0, Final residual = 0, No Iterations 0
time step continuity errors : sum local = 1.08819e-16, global = -4.94632e-18, cumulative = -1.66246e-15
ExecutionTime = 0.12 s  ClockTime = 0 s

Courant Number mean: 0.00149628 max: 0.0289664
Time = 0.00069

PIMPLE: iteration 1
diagonal:  Solving for rho, Initial residual = 0, Final residual = 0, No Iterations 0
smoothSolver:  Solving for Ux, Initial residual = 0.0035915, Final residual = 1.72553e-17, No Iterations 1
smoothSolver:  Solving for e, Initial residual = 0.0011201, Final residual = 4.57642e-17, No Iterations 4
smoothSolver:  Solving for p, Initial residual = 0.00034943, Final residual = 2.9239e-16, No Iterations 2
diagonal:  Solving for rho, Initial residual = 0, Final residual = 0, No Iterations 0
time step continuity errors : sum local = 6.05677e-16, global = -3.70974e-18, cumulative = -1.66617e-15
smoothSolver:  Solving for p, Initial residual = 3.77617e-06, Final residual = 1.46615e-17, No Iterations 2
diagonal:  Solving for rho, Initial residual = 0, Final residual = 0, No Iterations 0
time step continuity errors : sum local = 1.09808e-16, global = 6.92485e-18, cumulative = -1.65924e-15
ExecutionTime = 0.12 s  ClockTime = 0 s

Courant Number mean: 0.00151617 max: 0.0289677
Time = 0.0007

PIMPLE: iteration 1
diagonal:  Solving for rho, Initial residual = 0, Final residual = 0, No Iterations 0
smoothSolver:  Solving for Ux, Initial residual = 0.00355192, Final residual = 7.71378e-18, No Iterations 1
smoothSolver:  Solving for e, Initial residual = 0.00112155, Final residual = 3.82516e-17, No Iterations 4
smoothSolver:  Solving for p, Initial residual = 0.000352564, Final residual = 2.92744e-16, No Iterations 2
diagonal:  Solving for rho, Initial residual = 0, Final residual = 0, No Iterations 0
time step continuity errors : sum local = 5.91333e-16, global = 7.6668e-18, cumulative = -1.65158e-15
smoothSolver:  Solving for p, Initial residual = 3.76983e-06, Final residual = 1.49255e-17, No Iterations 2
diagonal:  Solving for rho, Initial residual = 0, Final residual = 0, No Iterations 0
time step continuity errors : sum local = 1.2069e-16, global = 4.94632e-18, cumulative = -1.64663e-15
ExecutionTime = 0.12 s  ClockTime = 0 s

Courant Number mean: 0.00153621 max: 0.0289761
Time = 0.00071

PIMPLE: iteration 1
diagonal:  Solving for rho, Initial residual = 0, Final residual = 0, No Iterations 0
smoothSolver:  Solving for Ux, Initial residual = 0.00350969, Final residual = 9.62927e-18, No Iterations 1
smoothSolver:  Solving for e, Initial residual = 0.00112155, Final residual = 4.44341e-17, No Iterations 4
smoothSolver:  Solving for p, Initial residual = 0.000357042, Final residual = 2.98227e-16, No Iterations 2
diagonal:  Solving for rho, Initial residual = 0, Final residual = 0, No Iterations 0
time step continuity errors : sum local = 6.26205e-16, global = -2.96779e-18, cumulative = -1.6496e-15
smoothSolver:  Solving for p, Initial residual = 3.87644e-06, Final residual = 1.53163e-17, No Iterations 2
diagonal:  Solving for rho, Initial residual = 0, Final residual = 0, No Iterations 0
time step continuity errors : sum local = 1.06593e-16, global = 8.65607e-18, cumulative = -1.64094e-15
ExecutionTime = 0.12 s  ClockTime = 0 s

Courant Number mean: 0.00155639 max: 0.0289914
Time = 0.00072

PIMPLE: iteration 1
diagonal:  Solving for rho, Initial residual = 0, Final residual = 0, No Iterations 0
smoothSolver:  Solving for Ux, Initial residual = 0.0034651, Final residual = 1.3427e-17, No Iterations 1
smoothSolver:  Solving for e, Initial residual = 0.0011201, Final residual = 5.4091e-17, No Iterations 4
smoothSolver:  Solving for p, Initial residual = 0.000361212, Final residual = 2.99238e-16, No Iterations 2
diagonal:  Solving for rho, Initial residual = 0, Final residual = 0, No Iterations 0
time step continuity errors : sum local = 6.30656e-16, global = 6.43022e-18, cumulative = -1.63451e-15
smoothSolver:  Solving for p, Initial residual = 4.05442e-06, Final residual = 1.64172e-17, No Iterations 2
diagonal:  Solving for rho, Initial residual = 0, Final residual = 0, No Iterations 0
time step continuity errors : sum local = 1.23163e-16, global = -8.90338e-18, cumulative = -1.64342e-15
ExecutionTime = 0.12 s  ClockTime = 0 s

Courant Number mean: 0.0015767 max: 0.029013
Time = 0.00073

PIMPLE: iteration 1
diagonal:  Solving for rho, Initial residual = 0, Final residual = 0, No Iterations 0
smoothSolver:  Solving for Ux, Initial residual = 0.00341844, Final residual = 9.87757e-18, No Iterations 1
smoothSolver:  Solving for e, Initial residual = 0.00111721, Final residual = 4.00466e-17, No Iterations 4
smoothSolver:  Solving for p, Initial residual = 0.000365064, Final residual = 2.98898e-16, No Iterations 2
diagonal:  Solving for rho, Initial residual = 0, Final residual = 0, No Iterations 0
time step continuity errors : sum local = 6.18043e-16, global = 2.74521e-17, cumulative = -1.61596e-15
smoothSolver:  Solving for p, Initial residual = 4.25566e-06, Final residual = 1.77566e-17, No Iterations 2
diagonal:  Solving for rho, Initial residual = 0, Final residual = 0, No Iterations 0
time step continuity errors : sum local = 1.28852e-16, global = 1.60756e-17, cumulative = -1.59989e-15
ExecutionTime = 0.12 s  ClockTime = 0 s

Courant Number mean: 0.00159716 max: 0.0290406
Time = 0.00074

PIMPLE: iteration 1
diagonal:  Solving for rho, Initial residual = 0, Final residual = 0, No Iterations 0
smoothSolver:  Solving for Ux, Initial residual = 0.00336998, Final residual = 1.00913e-17, No Iterations 1
smoothSolver:  Solving for e, Initial residual = 0.0011129, Final residual = 4.33971e-17, No Iterations 4
smoothSolver:  Solving for p, Initial residual = 0.000368588, Final residual = 3.07584e-16, No Iterations 2
diagonal:  Solving for rho, Initial residual = 0, Final residual = 0, No Iterations 0
time step continuity errors : sum local = 6.21258e-16, global = 1.73121e-17, cumulative = -1.58258e-15
smoothSolver:  Solving for p, Initial residual = 4.45295e-06, Final residual = 1.65294e-17, No Iterations 2
diagonal:  Solving for rho, Initial residual = 0, Final residual = 0, No Iterations 0
time step continuity errors : sum local = 1.17723e-16, global = 1.53336e-17, cumulative = -1.56724e-15
ExecutionTime = 0.12 s  ClockTime = 0 s

Courant Number mean: 0.00161777 max: 0.0290738
Time = 0.00075

PIMPLE: iteration 1
diagonal:  Solving for rho, Initial residual = 0, Final residual = 0, No Iterations 0
smoothSolver:  Solving for Ux, Initial residual = 0.00331997, Final residual = 1.36667e-17, No Iterations 1
smoothSolver:  Solving for e, Initial residual = 0.00110992, Final residual = 9.17036e-16, No Iterations 3
smoothSolver:  Solving for p, Initial residual = 0.000371791, Final residual = 3.14227e-16, No Iterations 2
diagonal:  Solving for rho, Initial residual = 0, Final residual = 0, No Iterations 0
time step continuity errors : sum local = 6.34861e-16, global = 3.70974e-18, cumulative = -1.56353e-15
smoothSolver:  Solving for p, Initial residual = 4.63145e-06, Final residual = 1.71874e-17, No Iterations 2
diagonal:  Solving for rho, Initial residual = 0, Final residual = 0, No Iterations 0
time step continuity errors : sum local = 9.79372e-17, global = -1.18712e-17, cumulative = -1.5754e-15
ExecutionTime = 0.12 s  ClockTime = 0 s

Courant Number mean: 0.00163851 max: 0.0291451
Time = 0.00076

PIMPLE: iteration 1
diagonal:  Solving for rho, Initial residual = 0, Final residual = 0, No Iterations 0
smoothSolver:  Solving for Ux, Initial residual = 0.00326813, Final residual = 8.54413e-18, No Iterations 1
smoothSolver:  Solving for e, Initial residual = 0.00110895, Final residual = 6.18893e-16, No Iterations 3
smoothSolver:  Solving for p, Initial residual = 0.000374672, Final residual = 3.10449e-16, No Iterations 2
diagonal:  Solving for rho, Initial residual = 0, Final residual = 0, No Iterations 0
time step continuity errors : sum local = 6.50194e-16, global = -1.23658e-18, cumulative = -1.57664e-15
smoothSolver:  Solving for p, Initial residual = 4.78723e-06, Final residual = 1.74532e-17, No Iterations 2
diagonal:  Solving for rho, Initial residual = 0, Final residual = 0, No Iterations 0
time step continuity errors : sum local = 1.08572e-16, global = 7.6668e-18, cumulative = -1.56897e-15
ExecutionTime = 0.12 s  ClockTime = 0 s

Courant Number mean: 0.00165938 max: 0.0293429
Time = 0.00077

PIMPLE: iteration 1
diagonal:  Solving for rho, Initial residual = 0, Final residual = 0, No Iterations 0
smoothSolver:  Solving for Ux, Initial residual = 0.00321454, Final residual = 1.39221e-17, No Iterations 1
smoothSolver:  Solving for e, Initial residual = 0.00110604, Final residual = 3.06116e-16, No Iterations 3
smoothSolver:  Solving for p, Initial residual = 0.000377141, Final residual = 3.1538e-16, No Iterations 2
diagonal:  Solving for rho, Initial residual = 0, Final residual = 0, No Iterations 0
[...]
diagonal:  Solving for rho, Initial residual = 0, Final residual = 0, No Iterations 0
time step continuity errors : sum local = 3.87692e-16, global = -2.78062e-16, cumulative = 1.95118e-14
smoothSolver:  Solving for p, Initial residual = 2.76872e-06, Final residual = 7.15102e-17, No Iterations 2
diagonal:  Solving for rho, Initial residual = 0, Final residual = 0, No Iterations 0
time step continuity errors : sum local = 1.50492e-16, global = -5.68084e-17, cumulative = 1.9455e-14
ExecutionTime = 1.24 s  ClockTime = 1 s

Courant Number mean: 0.0202513 max: 0.0387677
Time = 0.00982

PIMPLE: iteration 1
diagonal:  Solving for rho, Initial residual = 0, Final residual = 0, No Iterations 0
smoothSolver:  Solving for Ux, Initial residual = 0.000423746, Final residual = 4.05969e-17, No Iterations 1
smoothSolver:  Solving for e, Initial residual = 0.000852648, Final residual = 4.20019e-17, No Iterations 4
smoothSolver:  Solving for p, Initial residual = 0.000437352, Final residual = 3.6415e-16, No Iterations 2
diagonal:  Solving for rho, Initial residual = 0, Final residual = 0, No Iterations 0
time step continuity errors : sum local = 3.42903e-16, global = -2.83095e-16, cumulative = 1.91719e-14
smoothSolver:  Solving for p, Initial residual = 2.64878e-06, Final residual = 6.67239e-17, No Iterations 2
diagonal:  Solving for rho, Initial residual = 0, Final residual = 0, No Iterations 0
time step continuity errors : sum local = 1.44538e-16, global = 9.96812e-19, cumulative = 1.91729e-14
ExecutionTime = 1.24 s  ClockTime = 1 s

Courant Number mean: 0.0202542 max: 0.0384778
Time = 0.00983

PIMPLE: iteration 1
diagonal:  Solving for rho, Initial residual = 0, Final residual = 0, No Iterations 0
smoothSolver:  Solving for Ux, Initial residual = 0.000424897, Final residual = 4.07838e-17, No Iterations 1
smoothSolver:  Solving for e, Initial residual = 0.000848283, Final residual = 3.74652e-17, No Iterations 4
smoothSolver:  Solving for p, Initial residual = 0.000436179, Final residual = 3.7091e-16, No Iterations 2
diagonal:  Solving for rho, Initial residual = 0, Final residual = 0, No Iterations 0
time step continuity errors : sum local = 3.79852e-16, global = -3.1405e-16, cumulative = 1.88588e-14
smoothSolver:  Solving for p, Initial residual = 2.53993e-06, Final residual = 7.47258e-17, No Iterations 2
diagonal:  Solving for rho, Initial residual = 0, Final residual = 0, No Iterations 0
time step continuity errors : sum local = 1.61512e-16, global = -1.99397e-18, cumulative = 1.88568e-14
ExecutionTime = 1.24 s  ClockTime = 1 s

Courant Number mean: 0.0202572 max: 0.0381918
Time = 0.00984

PIMPLE: iteration 1
diagonal:  Solving for rho, Initial residual = 0, Final residual = 0, No Iterations 0
smoothSolver:  Solving for Ux, Initial residual = 0.000425772, Final residual = 3.80133e-17, No Iterations 1
smoothSolver:  Solving for e, Initial residual = 0.000843754, Final residual = 3.19771e-17, No Iterations 4
smoothSolver:  Solving for p, Initial residual = 0.000434901, Final residual = 3.66295e-16, No Iterations 2
diagonal:  Solving for rho, Initial residual = 0, Final residual = 0, No Iterations 0
time step continuity errors : sum local = 3.82909e-16, global = -3.11114e-16, cumulative = 1.85457e-14
smoothSolver:  Solving for p, Initial residual = 2.42511e-06, Final residual = 7.21339e-17, No Iterations 2
diagonal:  Solving for rho, Initial residual = 0, Final residual = 0, No Iterations 0
time step continuity errors : sum local = 1.5456e-16, global = 1.69517e-17, cumulative = 1.85626e-14
ExecutionTime = 1.24 s  ClockTime = 1 s

Courant Number mean: 0.0202603 max: 0.0379104
Time = 0.00985

PIMPLE: iteration 1
diagonal:  Solving for rho, Initial residual = 0, Final residual = 0, No Iterations 0
smoothSolver:  Solving for Ux, Initial residual = 0.000426373, Final residual = 3.72885e-17, No Iterations 1
smoothSolver:  Solving for e, Initial residual = 0.000839247, Final residual = 4.15147e-17, No Iterations 4
smoothSolver:  Solving for p, Initial residual = 0.000433453, Final residual = 3.60234e-16, No Iterations 2
diagonal:  Solving for rho, Initial residual = 0, Final residual = 0, No Iterations 0
time step continuity errors : sum local = 3.5904e-16, global = -3.05184e-16, cumulative = 1.82575e-14
smoothSolver:  Solving for p, Initial residual = 2.28895e-06, Final residual = 7.75692e-17, No Iterations 2
diagonal:  Solving for rho, Initial residual = 0, Final residual = 0, No Iterations 0
time step continuity errors : sum local = 1.52592e-16, global = -2.0944e-17, cumulative = 1.82365e-14
ExecutionTime = 1.24 s  ClockTime = 1 s

Courant Number mean: 0.0202634 max: 0.0376343
Time = 0.00986

PIMPLE: iteration 1
diagonal:  Solving for rho, Initial residual = 0, Final residual = 0, No Iterations 0
smoothSolver:  Solving for Ux, Initial residual = 0.00042667, Final residual = 3.61074e-17, No Iterations 1
smoothSolver:  Solving for e, Initial residual = 0.000834649, Final residual = 3.55003e-17, No Iterations 4
smoothSolver:  Solving for p, Initial residual = 0.000431952, Final residual = 3.56022e-16, No Iterations 2
diagonal:  Solving for rho, Initial residual = 0, Final residual = 0, No Iterations 0
time step continuity errors : sum local = 3.75062e-16, global = -2.87281e-16, cumulative = 1.79492e-14
smoothSolver:  Solving for p, Initial residual = 2.18026e-06, Final residual = 7.13206e-17, No Iterations 2
diagonal:  Solving for rho, Initial residual = 0, Final residual = 0, No Iterations 0
time step continuity errors : sum local = 1.65586e-16, global = 3.79052e-17, cumulative = 1.79871e-14
ExecutionTime = 1.25 s  ClockTime = 1 s

Courant Number mean: 0.0202666 max: 0.0373643
Time = 0.00987

PIMPLE: iteration 1
diagonal:  Solving for rho, Initial residual = 0, Final residual = 0, No Iterations 0
smoothSolver:  Solving for Ux, Initial residual = 0.000426724, Final residual = 3.30522e-17, No Iterations 1
smoothSolver:  Solving for e, Initial residual = 0.000830085, Final residual = 3.80091e-17, No Iterations 4
smoothSolver:  Solving for p, Initial residual = 0.000430294, Final residual = 3.76733e-16, No Iterations 2
diagonal:  Solving for rho, Initial residual = 0, Final residual = 0, No Iterations 0
time step continuity errors : sum local = 3.38212e-16, global = -2.86333e-16, cumulative = 1.77008e-14
smoothSolver:  Solving for p, Initial residual = 2.07016e-06, Final residual = 6.298e-17, No Iterations 2
diagonal:  Solving for rho, Initial residual = 0, Final residual = 0, No Iterations 0
time step continuity errors : sum local = 1.20719e-16, global = 1.69605e-17, cumulative = 1.77178e-14
ExecutionTime = 1.25 s  ClockTime = 1 s

Courant Number mean: 0.0202698 max: 0.0371006
Time = 0.00988

PIMPLE: iteration 1
diagonal:  Solving for rho, Initial residual = 0, Final residual = 0, No Iterations 0
smoothSolver:  Solving for Ux, Initial residual = 0.000426552, Final residual = 3.87864e-17, No Iterations 1
smoothSolver:  Solving for e, Initial residual = 0.000825561, Final residual = 3.49426e-17, No Iterations 4
smoothSolver:  Solving for p, Initial residual = 0.000428519, Final residual = 3.4835e-16, No Iterations 2
diagonal:  Solving for rho, Initial residual = 0, Final residual = 0, No Iterations 0
time step continuity errors : sum local = 3.46253e-16, global = -2.58443e-16, cumulative = 1.74593e-14
smoothSolver:  Solving for p, Initial residual = 1.95984e-06, Final residual = 7.11408e-17, No Iterations 2
diagonal:  Solving for rho, Initial residual = 0, Final residual = 0, No Iterations 0
time step continuity errors : sum local = 1.52671e-16, global = 4.98924e-18, cumulative = 1.74643e-14
ExecutionTime = 1.25 s  ClockTime = 1 s

Courant Number mean: 0.0202732 max: 0.0368436
Time = 0.00989

PIMPLE: iteration 1
diagonal:  Solving for rho, Initial residual = 0, Final residual = 0, No Iterations 0
smoothSolver:  Solving for Ux, Initial residual = 0.00042617, Final residual = 3.23425e-17, No Iterations 1
smoothSolver:  Solving for e, Initial residual = 0.000821061, Final residual = 2.87861e-17, No Iterations 4
smoothSolver:  Solving for p, Initial residual = 0.0004268, Final residual = 3.37202e-16, No Iterations 2
diagonal:  Solving for rho, Initial residual = 0, Final residual = 0, No Iterations 0
time step continuity errors : sum local = 3.2735e-16, global = -2.49505e-16, cumulative = 1.72148e-14
smoothSolver:  Solving for p, Initial residual = 1.85406e-06, Final residual = 6.96698e-17, No Iterations 2
diagonal:  Solving for rho, Initial residual = 0, Final residual = 0, No Iterations 0
time step continuity errors : sum local = 1.52697e-16, global = -2.99406e-18, cumulative = 1.72118e-14
ExecutionTime = 1.25 s  ClockTime = 1 s

Courant Number mean: 0.0202766 max: 0.0365937
Time = 0.0099

PIMPLE: iteration 1
diagonal:  Solving for rho, Initial residual = 0, Final residual = 0, No Iterations 0
smoothSolver:  Solving for Ux, Initial residual = 0.000425596, Final residual = 3.81097e-17, No Iterations 1
smoothSolver:  Solving for e, Initial residual = 0.000816599, Final residual = 3.85439e-17, No Iterations 4
smoothSolver:  Solving for p, Initial residual = 0.000425175, Final residual = 3.43459e-16, No Iterations 2
diagonal:  Solving for rho, Initial residual = 0, Final residual = 0, No Iterations 0
time step continuity errors : sum local = 3.0345e-16, global = -2.29584e-16, cumulative = 1.69822e-14
smoothSolver:  Solving for p, Initial residual = 1.74995e-06, Final residual = 6.41575e-17, No Iterations 2
diagonal:  Solving for rho, Initial residual = 0, Final residual = 0, No Iterations 0
time step continuity errors : sum local = 1.35754e-16, global = -4.19239e-17, cumulative = 1.69403e-14
ExecutionTime = 1.25 s  ClockTime = 1 s

Courant Number mean: 0.0202801 max: 0.0363511
Time = 0.00991

PIMPLE: iteration 1
diagonal:  Solving for rho, Initial residual = 0, Final residual = 0, No Iterations 0
smoothSolver:  Solving for Ux, Initial residual = 0.000424849, Final residual = 4.14607e-17, No Iterations 1
smoothSolver:  Solving for e, Initial residual = 0.000812194, Final residual = 3.56199e-17, No Iterations 4
smoothSolver:  Solving for p, Initial residual = 0.000423544, Final residual = 3.46245e-16, No Iterations 2
diagonal:  Solving for rho, Initial residual = 0, Final residual = 0, No Iterations 0
time step continuity errors : sum local = 3.25465e-16, global = -2.27626e-16, cumulative = 1.67127e-14
smoothSolver:  Solving for p, Initial residual = 1.64817e-06, Final residual = 6.96526e-17, No Iterations 2
diagonal:  Solving for rho, Initial residual = 0, Final residual = 0, No Iterations 0
time step continuity errors : sum local = 1.41767e-16, global = -1.99672e-18, cumulative = 1.67107e-14
ExecutionTime = 1.25 s  ClockTime = 1 s

Courant Number mean: 0.0202837 max: 0.036116
Time = 0.00992

PIMPLE: iteration 1
diagonal:  Solving for rho, Initial residual = 0, Final residual = 0, No Iterations 0
smoothSolver:  Solving for Ux, Initial residual = 0.000423943, Final residual = 4.28534e-17, No Iterations 1
smoothSolver:  Solving for e, Initial residual = 0.000807849, Final residual = 3.74287e-17, No Iterations 4
smoothSolver:  Solving for p, Initial residual = 0.000421881, Final residual = 3.37727e-16, No Iterations 2
diagonal:  Solving for rho, Initial residual = 0, Final residual = 0, No Iterations 0
time step continuity errors : sum local = 3.28516e-16, global = -2.44639e-16, cumulative = 1.64661e-14
smoothSolver:  Solving for p, Initial residual = 1.55305e-06, Final residual = 8.24565e-17, No Iterations 2
diagonal:  Solving for rho, Initial residual = 0, Final residual = 0, No Iterations 0
time step continuity errors : sum local = 1.75741e-16, global = -1.99706e-18, cumulative = 1.64641e-14
ExecutionTime = 1.25 s  ClockTime = 1 s

Courant Number mean: 0.0202874 max: 0.0358885
Time = 0.00993

PIMPLE: iteration 1
diagonal:  Solving for rho, Initial residual = 0, Final residual = 0, No Iterations 0
smoothSolver:  Solving for Ux, Initial residual = 0.00042291, Final residual = 3.66542e-17, No Iterations 1
smoothSolver:  Solving for e, Initial residual = 0.000805184, Final residual = 3.43198e-17, No Iterations 4
smoothSolver:  Solving for p, Initial residual = 0.000420207, Final residual = 3.39908e-16, No Iterations 2
diagonal:  Solving for rho, Initial residual = 0, Final residual = 0, No Iterations 0
time step continuity errors : sum local = 3.51541e-16, global = -2.87625e-16, cumulative = 1.61764e-14
smoothSolver:  Solving for p, Initial residual = 1.46233e-06, Final residual = 6.88533e-17, No Iterations 2
diagonal:  Solving for rho, Initial residual = 0, Final residual = 0, No Iterations 0
time step continuity errors : sum local = 1.31828e-16, global = 1.19844e-17, cumulative = 1.61884e-14
ExecutionTime = 1.25 s  ClockTime = 1 s

Courant Number mean: 0.0202912 max: 0.0356687
Time = 0.00994

PIMPLE: iteration 1
diagonal:  Solving for rho, Initial residual = 0, Final residual = 0, No Iterations 0
smoothSolver:  Solving for Ux, Initial residual = 0.000421762, Final residual = 3.31168e-17, No Iterations 1
smoothSolver:  Solving for e, Initial residual = 0.000807404, Final residual = 3.2591e-17, No Iterations 4
smoothSolver:  Solving for p, Initial residual = 0.000418516, Final residual = 3.41799e-16, No Iterations 2
diagonal:  Solving for rho, Initial residual = 0, Final residual = 0, No Iterations 0
time step continuity errors : sum local = 3.53598e-16, global = -2.89671e-16, cumulative = 1.58987e-14
smoothSolver:  Solving for p, Initial residual = 1.37434e-06, Final residual = 6.43492e-17, No Iterations 2
diagonal:  Solving for rho, Initial residual = 0, Final residual = 0, No Iterations 0
time step continuity errors : sum local = 1.63814e-16, global = 2.1975e-17, cumulative = 1.59207e-14
ExecutionTime = 1.25 s  ClockTime = 1 s

Courant Number mean: 0.0202951 max: 0.0354568
Time = 0.00995

PIMPLE: iteration 1
diagonal:  Solving for rho, Initial residual = 0, Final residual = 0, No Iterations 0
smoothSolver:  Solving for Ux, Initial residual = 0.000420494, Final residual = 3.92621e-17, No Iterations 1
smoothSolver:  Solving for e, Initial residual = 0.000809513, Final residual = 3.40482e-17, No Iterations 4
smoothSolver:  Solving for p, Initial residual = 0.000416797, Final residual = 3.47134e-16, No Iterations 2
diagonal:  Solving for rho, Initial residual = 0, Final residual = 0, No Iterations 0
time step continuity errors : sum local = 3.35674e-16, global = -2.77731e-16, cumulative = 1.5643e-14
smoothSolver:  Solving for p, Initial residual = 1.28856e-06, Final residual = 6.14859e-17, No Iterations 2
diagonal:  Solving for rho, Initial residual = 0, Final residual = 0, No Iterations 0
time step continuity errors : sum local = 1.39864e-16, global = 1.99806e-18, cumulative = 1.5645e-14
ExecutionTime = 1.25 s  ClockTime = 1 s

Courant Number mean: 0.0202991 max: 0.0352529
Time = 0.00996

PIMPLE: iteration 1
diagonal:  Solving for rho, Initial residual = 0, Final residual = 0, No Iterations 0
smoothSolver:  Solving for Ux, Initial residual = 0.000419183, Final residual = 3.43035e-17, No Iterations 1
smoothSolver:  Solving for e, Initial residual = 0.000811295, Final residual = 3.44754e-17, No Iterations 4
smoothSolver:  Solving for p, Initial residual = 0.000414918, Final residual = 3.49739e-16, No Iterations 2
diagonal:  Solving for rho, Initial residual = 0, Final residual = 0, No Iterations 0
time step continuity errors : sum local = 3.51717e-16, global = -3.1175e-16, cumulative = 1.53332e-14
smoothSolver:  Solving for p, Initial residual = 1.20365e-06, Final residual = 6.38831e-17, No Iterations 2
diagonal:  Solving for rho, Initial residual = 0, Final residual = 0, No Iterations 0
time step continuity errors : sum local = 1.55875e-16, global = -2.39807e-17, cumulative = 1.53093e-14
ExecutionTime = 1.25 s  ClockTime = 1 s

Courant Number mean: 0.0203032 max: 0.0350568
Time = 0.00997

PIMPLE: iteration 1
diagonal:  Solving for rho, Initial residual = 0, Final residual = 0, No Iterations 0
smoothSolver:  Solving for Ux, Initial residual = 0.000417862, Final residual = 4.37164e-17, No Iterations 1
smoothSolver:  Solving for e, Initial residual = 0.000812788, Final residual = 3.25088e-17, No Iterations 4
smoothSolver:  Solving for p, Initial residual = 0.000413019, Final residual = 3.25999e-16, No Iterations 2
diagonal:  Solving for rho, Initial residual = 0, Final residual = 0, No Iterations 0
time step continuity errors : sum local = 3.48778e-16, global = -3.04806e-16, cumulative = 1.50044e-14
smoothSolver:  Solving for p, Initial residual = 1.12136e-06, Final residual = 7.39883e-17, No Iterations 2
diagonal:  Solving for rho, Initial residual = 0, Final residual = 0, No Iterations 0
time step continuity errors : sum local = 1.47906e-16, global = -3.39783e-17, cumulative = 1.49705e-14
ExecutionTime = 1.25 s  ClockTime = 1 s

Courant Number mean: 0.0203073 max: 0.0348687
Time = 0.00998

PIMPLE: iteration 1
diagonal:  Solving for rho, Initial residual = 0, Final residual = 0, No Iterations 0
smoothSolver:  Solving for Ux, Initial residual = 0.000416463, Final residual = 3.95955e-17, No Iterations 1
smoothSolver:  Solving for e, Initial residual = 0.000815127, Final residual = 3.34367e-17, No Iterations 4
smoothSolver:  Solving for p, Initial residual = 0.000411242, Final residual = 3.35367e-16, No Iterations 2
diagonal:  Solving for rho, Initial residual = 0, Final residual = 0, No Iterations 0
time step continuity errors : sum local = 3.43838e-16, global = -2.5388e-16, cumulative = 1.47166e-14
smoothSolver:  Solving for p, Initial residual = 1.10227e-06, Final residual = 7.08353e-17, No Iterations 2
diagonal:  Solving for rho, Initial residual = 0, Final residual = 0, No Iterations 0
time step continuity errors : sum local = 1.64922e-16, global = -1.49929e-17, cumulative = 1.47016e-14
ExecutionTime = 1.26 s  ClockTime = 1 s

Courant Number mean: 0.0203116 max: 0.0346886
Time = 0.00999

PIMPLE: iteration 1
diagonal:  Solving for rho, Initial residual = 0, Final residual = 0, No Iterations 0
smoothSolver:  Solving for Ux, Initial residual = 0.000414998, Final residual = 3.70436e-17, No Iterations 1
smoothSolver:  Solving for e, Initial residual = 0.000817084, Final residual = 3.73865e-17, No Iterations 4
smoothSolver:  Solving for p, Initial residual = 0.000409513, Final residual = 3.35748e-16, No Iterations 2
diagonal:  Solving for rho, Initial residual = 0, Final residual = 0, No Iterations 0
time step continuity errors : sum local = 3.39895e-16, global = -2.75915e-16, cumulative = 1.44257e-14
smoothSolver:  Solving for p, Initial residual = 1.09988e-06, Final residual = 6.38988e-17, No Iterations 2
diagonal:  Solving for rho, Initial residual = 0, Final residual = 0, No Iterations 0
time step continuity errors : sum local = 1.64949e-16, global = -1.69948e-17, cumulative = 1.44087e-14
ExecutionTime = 1.26 s  ClockTime = 1 s

Courant Number mean: 0.0203159 max: 0.0345164
Time = 0.01

PIMPLE: iteration 1
diagonal:  Solving for rho, Initial residual = 0, Final residual = 0, No Iterations 0
smoothSolver:  Solving for Ux, Initial residual = 0.000413476, Final residual = 3.67524e-17, No Iterations 1
smoothSolver:  Solving for e, Initial residual = 0.000818608, Final residual = 3.59224e-17, No Iterations 4
smoothSolver:  Solving for p, Initial residual = 0.000407957, Final residual = 3.25539e-16, No Iterations 2
diagonal:  Solving for rho, Initial residual = 0, Final residual = 0, No Iterations 0
time step continuity errors : sum local = 3.41951e-16, global = -2.83959e-16, cumulative = 1.41247e-14
smoothSolver:  Solving for p, Initial residual = 1.09948e-06, Final residual = 7.4059e-17, No Iterations 2
diagonal:  Solving for rho, Initial residual = 0, Final residual = 0, No Iterations 0
time step continuity errors : sum local = 1.3798e-16, global = -1.3998e-17, cumulative = 1.41107e-14
ExecutionTime = 1.26 s  ClockTime = 1 s

    functionObjects::mag mag(U) writing field: mag(U)
End

