/*---------------------------------------------------------------------------*\
| =========                 |                                                 |
| \\      /  F ield         | OpenFOAM: The Open Source CFD Toolbox           |
|  \\    /   O peration     | Version:  2012                                  |
|   \\  /    A nd           | Website:  www.openfoam.com                      |
|    \\/     M anipulation  |                                                 |
\*---------------------------------------------------------------------------*/
Build  : _269d0ffd5c-20210619 OPENFOAM=2012 patch=210618
Arch   : "LSB;label=32;scalar=64"
Exec   : mhdPimpleFoam
Date   : May 11 2022
Time   : 18:24:37
Host   : gabrielmarconcini-Lenovo-G50-80
PID    : 20009
I/O    : uncollated
Case   : /home/gabrielmarconcini/Documentos/TCC/PTCC/ShockTube/sim/NewSolver/mhd/sim3
nProcs : 1
trapFpe: Floating point exception trapping enabled (FOAM_SIGFPE).
fileModificationChecking : Monitoring run-time modified files using timeStampMaster (fileModificationSkew 5, maxFileModificationPolls 20)
allowSystemOperations : Allowing user-supplied system call operations

// * * * * * * * * * * * * * * * * * * * * * * * * * * * * * * * * * * * * * //
Create time

Create mesh for time = 0


PIMPLE: Operating solver in PISO mode


BPISO: Operating solver in PISO mode

Reading thermophysical properties

Selecting thermodynamics package 
{
    type            hePsiThermo;
    mixture         pureMixture;
    transport       const;
    thermo          eConst;
    equationOfState perfectGas;
    specie          specie;
    energy          sensibleInternalEnergy;
}

Reading field U

Reading/calculating face flux field phi

Reading/calculating face flux field incompressible phi

Creating turbulence model

Selecting turbulence model type laminar
Selecting laminar stress model Stokes
Creating field dpdt

Creating field kinetic energy K

No MRF models present

No finite volume options present
Reading transportProperties

Reading field pB

Reading field B

Calculating face flux phiB

Courant Number mean: 0 max: 0

Starting time loop

Courant Number mean: 0 max: 0
deltaT = 1.2e-05
Time = 1.2e-05

PIMPLE: iteration 1
diagonal:  Solving for rho, Initial residual = 0, Final residual = 0, No Iterations 0
smoothSolver:  Solving for Ux, Initial residual = 1, Final residual = 0, No Iterations 1
smoothSolver:  Solving for Uy, Initial residual = 1, Final residual = 0, No Iterations 1
smoothSolver:  Solving for Uz, Initial residual = 0, Final residual = 0, No Iterations 0
smoothSolver:  Solving for e, Initial residual = 1.13395e-09, Final residual = 9.93408e-20, No Iterations 1
DICPCG:  Solving for p, Initial residual = 2.55995e-05, Final residual = 3.14225e-19, No Iterations 2
diagonal:  Solving for rho, Initial residual = 0, Final residual = 0, No Iterations 0
time step continuity errors : sum local = 2.04034e-16, global = -1.77389e-16, cumulative = -1.77389e-16
DICPCG:  Solving for p, Initial residual = 1.15419e-07, Final residual = 1.37226e-21, No Iterations 2
diagonal:  Solving for rho, Initial residual = 0, Final residual = 0, No Iterations 0
time step continuity errors : sum local = 1.04361e-16, global = -5.3044e-17, cumulative = -2.30433e-16
DICPCG:  Solving for p, Initial residual = 5.19449e-10, Final residual = 3.57991e-16, No Iterations 1
diagonal:  Solving for rho, Initial residual = 0, Final residual = 0, No Iterations 0
time step continuity errors : sum local = 7.37189e-16, global = -6.73042e-16, cumulative = -9.03476e-16
smoothSolver:  Solving for Bx, Initial residual = 1, Final residual = 1.01566e-12, No Iterations 1000
smoothSolver:  Solving for By, Initial residual = 2.39986e-05, Final residual = 4.60479e-17, No Iterations 3
smoothSolver:  Solving for Bz, Initial residual = 0, Final residual = 0, No Iterations 0
DICPCG:  Solving for pB, Initial residual = 1, Final residual = 3.44395e-16, No Iterations 14
magnetic flux divergence error = 0
smoothSolver:  Solving for Bx, Initial residual = 0, Final residual = 0, No Iterations 0
smoothSolver:  Solving for By, Initial residual = 0, Final residual = 0, No Iterations 0
smoothSolver:  Solving for Bz, Initial residual = 0, Final residual = 0, No Iterations 0
DICPCG:  Solving for pB, Initial residual = 3.71991e-16, Final residual = 3.71991e-16, No Iterations 0
magnetic flux divergence error = 0
smoothSolver:  Solving for Bx, Initial residual = 0, Final residual = 0, No Iterations 0
smoothSolver:  Solving for By, Initial residual = 0, Final residual = 0, No Iterations 0
smoothSolver:  Solving for Bz, Initial residual = 0, Final residual = 0, No Iterations 0
DICPCG:  Solving for pB, Initial residual = 3.71991e-16, Final residual = 3.71991e-16, No Iterations 0
magnetic flux divergence error = 0
ExecutionTime = 0.14 s  ClockTime = 1 s

Courant Number mean: 5.80461e-05 max: 0.00514663
deltaT = 1.44e-05
Time = 2.64e-05

PIMPLE: iteration 1
diagonal:  Solving for rho, Initial residual = 0, Final residual = 0, No Iterations 0
smoothSolver:  Solving for Ux, Initial residual = 0.148115, Final residual = 7.94213e-18, No Iterations 3
smoothSolver:  Solving for Uy, Initial residual = 0.147993, Final residual = 2.87267e-17, No Iterations 3
smoothSolver:  Solving for Uz, Initial residual = 0, Final residual = 0, No Iterations 0
smoothSolver:  Solving for e, Initial residual = 0.000519138, Final residual = 2.80937e-16, No Iterations 1
DICPCG:  Solving for p, Initial residual = 0.000146128, Final residual = 5.93375e-18, No Iterations 2
diagonal:  Solving for rho, Initial residual = 0, Final residual = 0, No Iterations 0
time step continuity errors : sum local = 1.26072e-16, global = 8.51172e-17, cumulative = -8.18358e-16
DICPCG:  Solving for p, Initial residual = 1.19935e-06, Final residual = 1.34473e-19, No Iterations 2
diagonal:  Solving for rho, Initial residual = 0, Final residual = 0, No Iterations 0
time step continuity errors : sum local = 9.94267e-17, global = 6.68601e-17, cumulative = -7.51498e-16
DICPCG:  Solving for p, Initial residual = 6.47408e-09, Final residual = 1.03385e-21, No Iterations 2
diagonal:  Solving for rho, Initial residual = 0, Final residual = 0, No Iterations 0
time step continuity errors : sum local = 1.38161e-16, global = 9.42457e-17, cumulative = -6.57253e-16
smoothSolver:  Solving for Bx, Initial residual = 0.565228, Final residual = 2.77239e-13, No Iterations 1000
smoothSolver:  Solving for By, Initial residual = 2.8731e-05, Final residual = 5.17397e-17, No Iterations 3
smoothSolver:  Solving for Bz, Initial residual = 0, Final residual = 0, No Iterations 0
DICPCG:  Solving for pB, Initial residual = 0.499536, Final residual = 4.09251e-16, No Iterations 14
magnetic flux divergence error = 0
smoothSolver:  Solving for Bx, Initial residual = 0, Final residual = 0, No Iterations 0
smoothSolver:  Solving for By, Initial residual = 0, Final residual = 0, No Iterations 0
smoothSolver:  Solving for Bz, Initial residual = 0, Final residual = 0, No Iterations 0
DICPCG:  Solving for pB, Initial residual = 5.05966e-16, Final residual = 5.05966e-16, No Iterations 0
magnetic flux divergence error = 0
smoothSolver:  Solving for Bx, Initial residual = 0, Final residual = 0, No Iterations 0
smoothSolver:  Solving for By, Initial residual = 0, Final residual = 0, No Iterations 0
smoothSolver:  Solving for Bz, Initial residual = 0, Final residual = 0, No Iterations 0
DICPCG:  Solving for pB, Initial residual = 5.05966e-16, Final residual = 5.05966e-16, No Iterations 0
magnetic flux divergence error = 0
ExecutionTime = 0.14 s  ClockTime = 1 s

Courant Number mean: 0.000218842 max: 0.017728
deltaT = 1.728e-05
Time = 4.368e-05

PIMPLE: iteration 1
diagonal:  Solving for rho, Initial residual = 0, Final residual = 0, No Iterations 0
smoothSolver:  Solving for Ux, Initial residual = 0.0855616, Final residual = 1.59675e-17, No Iterations 4
smoothSolver:  Solving for Uy, Initial residual = 0.0852237, Final residual = 1.05947e-17, No Iterations 4
smoothSolver:  Solving for Uz, Initial residual = 0, Final residual = 0, No Iterations 0
smoothSolver:  Solving for e, Initial residual = 0.00165254, Final residual = 4.77718e-18, No Iterations 3
DICPCG:  Solving for p, Initial residual = 0.000365067, Final residual = 3.41248e-17, No Iterations 2
diagonal:  Solving for rho, Initial residual = 0, Final residual = 0, No Iterations 0
time step continuity errors : sum local = 2.01814e-16, global = 6.612e-17, cumulative = -5.91133e-16
DICPCG:  Solving for p, Initial residual = 4.67575e-06, Final residual = 3.13946e-18, No Iterations 2
diagonal:  Solving for rho, Initial residual = 0, Final residual = 0, No Iterations 0
time step continuity errors : sum local = 1.60859e-16, global = 1.23852e-16, cumulative = -4.67281e-16
DICPCG:  Solving for p, Initial residual = 2.6235e-08, Final residual = 7.19389e-21, No Iterations 2
diagonal:  Solving for rho, Initial residual = 0, Final residual = 0, No Iterations 0
time step continuity errors : sum local = 1.39888e-16, global = 1.08309e-16, cumulative = -3.58972e-16
smoothSolver:  Solving for Bx, Initial residual = 0.409145, Final residual = 1.23889e-13, No Iterations 1000
smoothSolver:  Solving for By, Initial residual = 3.43805e-05, Final residual = 6.2237e-17, No Iterations 3
smoothSolver:  Solving for Bz, Initial residual = 0, Final residual = 0, No Iterations 0
DICPCG:  Solving for pB, Initial residual = 0.32904, Final residual = 1.08671e-16, No Iterations 14
magnetic flux divergence error = 0
smoothSolver:  Solving for Bx, Initial residual = 0, Final residual = 0, No Iterations 0
smoothSolver:  Solving for By, Initial residual = 0, Final residual = 0, No Iterations 0
smoothSolver:  Solving for Bz, Initial residual = 0, Final residual = 0, No Iterations 0
DICPCG:  Solving for pB, Initial residual = 5.24837e-16, Final residual = 5.24837e-16, No Iterations 0
magnetic flux divergence error = 0
smoothSolver:  Solving for Bx, Initial residual = 0, Final residual = 0, No Iterations 0
smoothSolver:  Solving for By, Initial residual = 0, Final residual = 0, No Iterations 0
smoothSolver:  Solving for Bz, Initial residual = 0, Final residual = 0, No Iterations 0
DICPCG:  Solving for pB, Initial residual = 5.24837e-16, Final residual = 5.24837e-16, No Iterations 0
magnetic flux divergence error = 0
ExecutionTime = 0.15 s  ClockTime = 1 s

Courant Number mean: 0.000463894 max: 0.0362653
deltaT = 2.0736e-05
Time = 6.4416e-05

PIMPLE: iteration 1
diagonal:  Solving for rho, Initial residual = 0, Final residual = 0, No Iterations 0
smoothSolver:  Solving for Ux, Initial residual = 0.0618953, Final residual = 3.438e-17, No Iterations 4
smoothSolver:  Solving for Uy, Initial residual = 0.0613404, Final residual = 6.26774e-17, No Iterations 4
smoothSolver:  Solving for Uz, Initial residual = 0, Final residual = 0, No Iterations 0
smoothSolver:  Solving for e, Initial residual = 0.0033278, Final residual = 7.41072e-16, No Iterations 3
DICPCG:  Solving for p, Initial residual = 0.000666381, Final residual = 2.08602e-16, No Iterations 2
diagonal:  Solving for rho, Initial residual = 0, Final residual = 0, No Iterations 0
time step continuity errors : sum local = 5.15637e-16, global = 7.45084e-17, cumulative = -2.84464e-16
DICPCG:  Solving for p, Initial residual = 1.08657e-05, Final residual = 3.854e-17, No Iterations 2
diagonal:  Solving for rho, Initial residual = 0, Final residual = 0, No Iterations 0
time step continuity errors : sum local = 2.12916e-16, global = 1.45316e-16, cumulative = -1.39148e-16
DICPCG:  Solving for p, Initial residual = 8.26647e-08, Final residual = 2.41112e-19, No Iterations 2
diagonal:  Solving for rho, Initial residual = 0, Final residual = 0, No Iterations 0
time step continuity errors : sum local = 1.59872e-16, global = 5.27973e-17, cumulative = -8.63507e-17
smoothSolver:  Solving for Bx, Initial residual = 0.325573, Final residual = 4.8708e-14, No Iterations 1000
smoothSolver:  Solving for By, Initial residual = 4.1118e-05, Final residual = 7.48102e-17, No Iterations 3
smoothSolver:  Solving for Bz, Initial residual = 0, Final residual = 0, No Iterations 0
DICPCG:  Solving for pB, Initial residual = 0.238675, Final residual = 1.12154e-16, No Iterations 14
magnetic flux divergence error = 0
smoothSolver:  Solving for Bx, Initial residual = 2.04509e-14, Final residual = 3.67449e-14, No Iterations 1000
smoothSolver:  Solving for By, Initial residual = 0, Final residual = 0, No Iterations 0
smoothSolver:  Solving for Bz, Initial residual = 0, Final residual = 0, No Iterations 0
DICPCG:  Solving for pB, Initial residual = 2.01504e-16, Final residual = 2.01504e-16, No Iterations 0
magnetic flux divergence error = 0
smoothSolver:  Solving for Bx, Initial residual = 2.04509e-14, Final residual = 3.67449e-14, No Iterations 1000
smoothSolver:  Solving for By, Initial residual = 0, Final residual = 0, No Iterations 0
smoothSolver:  Solving for Bz, Initial residual = 0, Final residual = 0, No Iterations 0
DICPCG:  Solving for pB, Initial residual = 2.01504e-16, Final residual = 2.01504e-16, No Iterations 0
magnetic flux divergence error = 0
ExecutionTime = 0.17 s  ClockTime = 1 s

Courant Number mean: 0.000766297 max: 0.0582872
deltaT = 2.48832e-05
Time = 8.92992e-05

PIMPLE: iteration 1
diagonal:  Solving for rho, Initial residual = 0, Final residual = 0, No Iterations 0
smoothSolver:  Solving for Ux, Initial residual = 0.0487064, Final residual = 1.13188e-17, No Iterations 5
smoothSolver:  Solving for Uy, Initial residual = 0.0478884, Final residual = 4.02187e-17, No Iterations 5
smoothSolver:  Solving for Uz, Initial residual = 0, Final residual = 0, No Iterations 0
smoothSolver:  Solving for e, Initial residual = 0.0053913, Final residual = 2.06158e-16, No Iterations 2
DICPCG:  Solving for p, Initial residual = 0.00103216, Final residual = 1.24884e-21, No Iterations 3
diagonal:  Solving for rho, Initial residual = 0, Final residual = 0, No Iterations 0
time step continuity errors : sum local = 1.23358e-16, global = 6.612e-17, cumulative = -2.02307e-17
DICPCG:  Solving for p, Initial residual = 1.6712e-05, Final residual = 2.01023e-16, No Iterations 2
diagonal:  Solving for rho, Initial residual = 0, Final residual = 0, No Iterations 0
time step continuity errors : sum local = 4.45817e-16, global = 3.50091e-16, cumulative = 3.2986e-16
DICPCG:  Solving for p, Initial residual = 3.70723e-07, Final residual = 2.76342e-18, No Iterations 2
diagonal:  Solving for rho, Initial residual = 0, Final residual = 0, No Iterations 0
time step continuity errors : sum local = 1.26319e-16, global = 3.84878e-17, cumulative = 3.68348e-16
smoothSolver:  Solving for Bx, Initial residual = 0.27045, Final residual = 4.10663e-14, No Iterations 1000
smoothSolver:  Solving for By, Initial residual = 4.9143e-05, Final residual = 2.40821e-17, No Iterations 3
smoothSolver:  Solving for Bz, Initial residual = 0, Final residual = 0, No Iterations 0
DICPCG:  Solving for pB, Initial residual = 0.183608, Final residual = 6.59268e-17, No Iterations 14
magnetic flux divergence error = 0
smoothSolver:  Solving for Bx, Initial residual = 0, Final residual = 0, No Iterations 0
smoothSolver:  Solving for By, Initial residual = 5.65867e-19, Final residual = 5.65867e-19, No Iterations 0
smoothSolver:  Solving for Bz, Initial residual = 0, Final residual = 0, No Iterations 0
DICPCG:  Solving for pB, Initial residual = 3.16474e-16, Final residual = 3.16474e-16, No Iterations 0
magnetic flux divergence error = 0
smoothSolver:  Solving for Bx, Initial residual = 0, Final residual = 0, No Iterations 0
smoothSolver:  Solving for By, Initial residual = 5.65867e-19, Final residual = 5.65867e-19, No Iterations 0
smoothSolver:  Solving for Bz, Initial residual = 0, Final residual = 0, No Iterations 0
DICPCG:  Solving for pB, Initial residual = 3.16474e-16, Final residual = 3.16474e-16, No Iterations 0
magnetic flux divergence error = 0
ExecutionTime = 0.18 s  ClockTime = 1 s

Courant Number mean: 0.00115817 max: 0.0828712
deltaT = 2.98598e-05
Time = 0.000119159

PIMPLE: iteration 1
diagonal:  Solving for rho, Initial residual = 0, Final residual = 0, No Iterations 0
smoothSolver:  Solving for Ux, Initial residual = 0.0403536, Final residual = 5.77542e-17, No Iterations 5
smoothSolver:  Solving for Uy, Initial residual = 0.039103, Final residual = 5.48067e-17, No Iterations 5
smoothSolver:  Solving for Uz, Initial residual = 0, Final residual = 0, No Iterations 0
smoothSolver:  Solving for e, Initial residual = 0.00729786, Final residual = 8.13327e-18, No Iterations 3
DICPCG:  Solving for p, Initial residual = 0.00144728, Final residual = 1.91078e-20, No Iterations 3
diagonal:  Solving for rho, Initial residual = 0, Final residual = 0, No Iterations 0
time step continuity errors : sum local = 1.3076e-16, global = -3.20731e-17, cumulative = 3.36274e-16
DICPCG:  Solving for p, Initial residual = 2.87177e-05, Final residual = 3.28385e-16, No Iterations 2
diagonal:  Solving for rho, Initial residual = 0, Final residual = 0, No Iterations 0
time step continuity errors : sum local = 6.91053e-16, global = -5.91379e-16, cumulative = -2.55105e-16
DICPCG:  Solving for p, Initial residual = 1.28856e-06, Final residual = 9.50746e-18, No Iterations 2
diagonal:  Solving for rho, Initial residual = 0, Final residual = 0, No Iterations 0
time step continuity errors : sum local = 1.45069e-16, global = -6.41463e-17, cumulative = -3.19251e-16
smoothSolver:  Solving for Bx, Initial residual = 0.230636, Final residual = 2.83425e-14, No Iterations 1000
smoothSolver:  Solving for By, Initial residual = 5.86875e-05, Final residual = 2.96415e-17, No Iterations 3
smoothSolver:  Solving for Bz, Initial residual = 0, Final residual = 0, No Iterations 0
DICPCG:  Solving for pB, Initial residual = 0.146855, Final residual = 7.40303e-17, No Iterations 14
magnetic flux divergence error = 0
smoothSolver:  Solving for Bx, Initial residual = 0, Final residual = 0, No Iterations 0
smoothSolver:  Solving for By, Initial residual = 6.79093e-19, Final residual = 6.79093e-19, No Iterations 0
smoothSolver:  Solving for Bz, Initial residual = 0, Final residual = 0, No Iterations 0
DICPCG:  Solving for pB, Initial residual = 2.70157e-16, Final residual = 2.70157e-16, No Iterations 0
magnetic flux divergence error = 0
smoothSolver:  Solving for Bx, Initial residual = 0, Final residual = 0, No Iterations 0
smoothSolver:  Solving for By, Initial residual = 6.79093e-19, Final residual = 6.79093e-19, No Iterations 0
smoothSolver:  Solving for Bz, Initial residual = 0, Final residual = 0, No Iterations 0
DICPCG:  Solving for pB, Initial residual = 2.70157e-16, Final residual = 2.70157e-16, No Iterations 0
magnetic flux divergence error = 0
ExecutionTime = 0.19 s  ClockTime = 1 s

Courant Number mean: 0.00161215 max: 0.105876
deltaT = 3.58318e-05
Time = 0.000154991

PIMPLE: iteration 1
diagonal:  Solving for rho, Initial residual = 0, Final residual = 0, No Iterations 0
smoothSolver:  Solving for Ux, Initial residual = 0.0345399, Final residual = 8.3989e-16, No Iterations 5
smoothSolver:  Solving for Uy, Initial residual = 0.032996, Final residual = 9.20414e-18, No Iterations 6
smoothSolver:  Solving for Uz, Initial residual = 0, Final residual = 0, No Iterations 0
smoothSolver:  Solving for e, Initial residual = 0.0082624, Final residual = 1.01909e-17, No Iterations 3
DICPCG:  Solving for p, Initial residual = 0.00186022, Final residual = 1.6618e-19, No Iterations 3
diagonal:  Solving for rho, Initial residual = 0, Final residual = 0, No Iterations 0
time step continuity errors : sum local = 1.6678e-16, global = 1.0066e-16, cumulative = -2.18591e-16
DICPCG:  Solving for p, Initial residual = 5.34218e-05, Final residual = 2.57067e-21, No Iterations 3
diagonal:  Solving for rho, Initial residual = 0, Final residual = 0, No Iterations 0
time step continuity errors : sum local = 1.55678e-16, global = 1.04854e-16, cumulative = -1.13736e-16
DICPCG:  Solving for p, Initial residual = 3.33002e-06, Final residual = 8.41074e-17, No Iterations 2
diagonal:  Solving for rho, Initial residual = 0, Final residual = 0, No Iterations 0
time step continuity errors : sum local = 3.19744e-16, global = 1.4803e-16, cumulative = 3.42936e-17
smoothSolver:  Solving for Bx, Initial residual = 0.215243, Final residual = 2.39456e-14, No Iterations 1000
smoothSolver:  Solving for By, Initial residual = 7.00189e-05, Final residual = 3.57088e-17, No Iterations 3
smoothSolver:  Solving for Bz, Initial residual = 0, Final residual = 0, No Iterations 0
DICPCG:  Solving for pB, Initial residual = 0.119353, Final residual = 8.47906e-17, No Iterations 14
magnetic flux divergence error = 0
smoothSolver:  Solving for Bx, Initial residual = 0, Final residual = 0, No Iterations 0
smoothSolver:  Solving for By, Initial residual = 2.44496e-18, Final residual = 2.44496e-18, No Iterations 0
smoothSolver:  Solving for Bz, Initial residual = 0, Final residual = 0, No Iterations 0
DICPCG:  Solving for pB, Initial residual = 5.32403e-16, Final residual = 5.32403e-16, No Iterations 0
magnetic flux divergence error = 0
smoothSolver:  Solving for Bx, Initial residual = 0, Final residual = 0, No Iterations 0
smoothSolver:  Solving for By, Initial residual = 2.44496e-18, Final residual = 2.44496e-18, No Iterations 0
smoothSolver:  Solving for Bz, Initial residual = 0, Final residual = 0, No Iterations 0
DICPCG:  Solving for pB, Initial residual = 5.32403e-16, Final residual = 5.32403e-16, No Iterations 0
magnetic flux divergence error = 0
ExecutionTime = 0.19 s  ClockTime = 1 s

Courant Number mean: 0.00217515 max: 0.126494
deltaT = 4.29982e-05
Time = 0.000197989

PIMPLE: iteration 1
diagonal:  Solving for rho, Initial residual = 0, Final residual = 0, No Iterations 0
smoothSolver:  Solving for Ux, Initial residual = 0.0310514, Final residual = 1.80756e-17, No Iterations 6
smoothSolver:  Solving for Uy, Initial residual = 0.0293556, Final residual = 3.01404e-17, No Iterations 6
smoothSolver:  Solving for Uz, Initial residual = 0, Final residual = 0, No Iterations 0
smoothSolver:  Solving for e, Initial residual = 0.00785963, Final residual = 3.88086e-17, No Iterations 3
DICPCG:  Solving for p, Initial residual = 0.00220053, Final residual = 5.89972e-19, No Iterations 3
diagonal:  Solving for rho, Initial residual = 0, Final residual = 0, No Iterations 0
time step continuity errors : sum local = 1.97126e-16, global = 1.40382e-16, cumulative = 1.74675e-16
DICPCG:  Solving for p, Initial residual = 9.95285e-05, Final residual = 1.56534e-19, No Iterations 3
diagonal:  Solving for rho, Initial residual = 0, Final residual = 0, No Iterations 0
time step continuity errors : sum local = 1.88245e-16, global = 1.315e-16, cumulative = 3.06175e-16
DICPCG:  Solving for p, Initial residual = 7.34654e-06, Final residual = 7.93301e-21, No Iterations 3
diagonal:  Solving for rho, Initial residual = 0, Final residual = 0, No Iterations 0
time step continuity errors : sum local = 1.991e-16, global = 1.57652e-16, cumulative = 4.63827e-16
smoothSolver:  Solving for Bx, Initial residual = 0.200496, Final residual = 6.21295e-15, No Iterations 1000
smoothSolver:  Solving for By, Initial residual = 8.34437e-05, Final residual = 4.36126e-17, No Iterations 3
smoothSolver:  Solving for Bz, Initial residual = 0, Final residual = 0, No Iterations 0
DICPCG:  Solving for pB, Initial residual = 0.102575, Final residual = 7.72283e-17, No Iterations 14
magnetic flux divergence error = 0
smoothSolver:  Solving for Bx, Initial residual = 3.0797e-15, Final residual = 5.17709e-15, No Iterations 1000
smoothSolver:  Solving for By, Initial residual = 1.95619e-18, Final residual = 1.95619e-18, No Iterations 0
smoothSolver:  Solving for Bz, Initial residual = 0, Final residual = 0, No Iterations 0
DICPCG:  Solving for pB, Initial residual = 5.04554e-16, Final residual = 5.04554e-16, No Iterations 0
magnetic flux divergence error = 0
smoothSolver:  Solving for Bx, Initial residual = 3.0797e-15, Final residual = 5.17709e-15, No Iterations 1000
smoothSolver:  Solving for By, Initial residual = 1.95619e-18, Final residual = 1.95619e-18, No Iterations 0
smoothSolver:  Solving for Bz, Initial residual = 0, Final residual = 0, No Iterations 0
DICPCG:  Solving for pB, Initial residual = 5.04554e-16, Final residual = 5.04554e-16, No Iterations 0
magnetic flux divergence error = 0
ExecutionTime = 0.21 s  ClockTime = 1 s

Courant Number mean: 0.00291581 max: 0.144987
deltaT = 5e-05
Time = 0.000247989

PIMPLE: iteration 1
diagonal:  Solving for rho, Initial residual = 0, Final residual = 0, No Iterations 0
smoothSolver:  Solving for Ux, Initial residual = 0.0288452, Final residual = 6.17141e-17, No Iterations 6
smoothSolver:  Solving for Uy, Initial residual = 0.0272944, Final residual = 2.60678e-16, No Iterations 6
smoothSolver:  Solving for Uz, Initial residual = 0, Final residual = 0, No Iterations 0
smoothSolver:  Solving for e, Initial residual = 0.00942368, Final residual = 1.49876e-17, No Iterations 4
DICPCG:  Solving for p, Initial residual = 0.00264535, Final residual = 3.00881e-18, No Iterations 3
diagonal:  Solving for rho, Initial residual = 0, Final residual = 0, No Iterations 0
time step continuity errors : sum local = 1.42602e-16, global = 5.87185e-17, cumulative = 5.22545e-16
DICPCG:  Solving for p, Initial residual = 0.000168657, Final residual = 2.37981e-18, No Iterations 3
diagonal:  Solving for rho, Initial residual = 0, Final residual = 0, No Iterations 0
time step continuity errors : sum local = 1.43342e-16, global = 1.00414e-16, cumulative = 6.22959e-16
DICPCG:  Solving for p, Initial residual = 1.32866e-05, Final residual = 1.4125e-19, No Iterations 3
diagonal:  Solving for rho, Initial residual = 0, Final residual = 0, No Iterations 0
time step continuity errors : sum local = 1.27306e-16, global = 3.79943e-17, cumulative = 6.60953e-16
smoothSolver:  Solving for Bx, Initial residual = 0.179813, Final residual = 5.0006e-15, No Iterations 1000
smoothSolver:  Solving for By, Initial residual = 9.62343e-05, Final residual = 5.72114e-17, No Iterations 3
smoothSolver:  Solving for Bz, Initial residual = 0, Final residual = 0, No Iterations 0
DICPCG:  Solving for pB, Initial residual = 0.0971847, Final residual = 4.77648e-16, No Iterations 14
magnetic flux divergence error = 1.11022e-21
smoothSolver:  Solving for Bx, Initial residual = 8.57971e-17, Final residual = 8.57971e-17, No Iterations 0
smoothSolver:  Solving for By, Initial residual = 1.36503e-17, Final residual = 1.36503e-17, No Iterations 0
smoothSolver:  Solving for Bz, Initial residual = 0, Final residual = 0, No Iterations 0
DICPCG:  Solving for pB, Initial residual = 6.5022e-16, Final residual = 6.5022e-16, No Iterations 0
magnetic flux divergence error = 1.11022e-21
smoothSolver:  Solving for Bx, Initial residual = 8.57971e-17, Final residual = 8.57971e-17, No Iterations 0
smoothSolver:  Solving for By, Initial residual = 1.36503e-17, Final residual = 1.36503e-17, No Iterations 0
smoothSolver:  Solving for Bz, Initial residual = 0, Final residual = 0, No Iterations 0
DICPCG:  Solving for pB, Initial residual = 6.5022e-16, Final residual = 6.5022e-16, No Iterations 0
magnetic flux divergence error = 1.11022e-21
ExecutionTime = 0.22 s  ClockTime = 1 s

Courant Number mean: 0.00382711 max: 0.158122
deltaT = 5e-05
Time = 0.000297989

PIMPLE: iteration 1
diagonal:  Solving for rho, Initial residual = 0, Final residual = 0, No Iterations 0
smoothSolver:  Solving for Ux, Initial residual = 0.0248131, Final residual = 1.58547e-17, No Iterations 6
smoothSolver:  Solving for Uy, Initial residual = 0.0240861, Final residual = 1.90711e-16, No Iterations 6
smoothSolver:  Solving for Uz, Initial residual = 0, Final residual = 0, No Iterations 0
smoothSolver:  Solving for e, Initial residual = 0.0112721, Final residual = 2.04485e-16, No Iterations 4
DICPCG:  Solving for p, Initial residual = 0.00253256, Final residual = 1.32137e-17, No Iterations 3
diagonal:  Solving for rho, Initial residual = 0, Final residual = 0, No Iterations 0
time step continuity errors : sum local = 1.63326e-16, global = 4.83564e-17, cumulative = 7.0931e-16
DICPCG:  Solving for p, Initial residual = 0.000168367, Final residual = 3.29655e-18, No Iterations 3
diagonal:  Solving for rho, Initial residual = 0, Final residual = 0, No Iterations 0
time step continuity errors : sum local = 1.39888e-16, global = 6.38996e-17, cumulative = 7.73209e-16
DICPCG:  Solving for p, Initial residual = 1.2921e-05, Final residual = 1.58399e-19, No Iterations 3
diagonal:  Solving for rho, Initial residual = 0, Final residual = 0, No Iterations 0
time step continuity errors : sum local = 1.34707e-16, global = 9.62194e-17, cumulative = 8.69429e-16
smoothSolver:  Solving for Bx, Initial residual = 0.1415, Final residual = 3.81541e-15, No Iterations 1000
smoothSolver:  Solving for By, Initial residual = 9.53245e-05, Final residual = 5.59195e-17, No Iterations 3
smoothSolver:  Solving for Bz, Initial residual = 0, Final residual = 0, No Iterations 0
DICPCG:  Solving for pB, Initial residual = 0.131114, Final residual = 1.12483e-16, No Iterations 14
magnetic flux divergence error = 4.44089e-21
smoothSolver:  Solving for Bx, Initial residual = 6.45264e-17, Final residual = 6.45264e-17, No Iterations 0
smoothSolver:  Solving for By, Initial residual = 1.08085e-17, Final residual = 1.08085e-17, No Iterations 0
smoothSolver:  Solving for Bz, Initial residual = 0, Final residual = 0, No Iterations 0
DICPCG:  Solving for pB, Initial residual = 5.9204e-16, Final residual = 5.9204e-16, No Iterations 0
magnetic flux divergence error = 4.44089e-21
smoothSolver:  Solving for Bx, Initial residual = 6.45264e-17, Final residual = 6.45264e-17, No Iterations 0
smoothSolver:  Solving for By, Initial residual = 1.08085e-17, Final residual = 1.08085e-17, No Iterations 0
smoothSolver:  Solving for Bz, Initial residual = 0, Final residual = 0, No Iterations 0
DICPCG:  Solving for pB, Initial residual = 5.9204e-16, Final residual = 5.9204e-16, No Iterations 0
magnetic flux divergence error = 4.44089e-21
ExecutionTime = 0.23 s  ClockTime = 1 s

Courant Number mean: 0.00430137 max: 0.149075
deltaT = 5e-05
Time = 0.000347989

PIMPLE: iteration 1
diagonal:  Solving for rho, Initial residual = 0, Final residual = 0, No Iterations 0
smoothSolver:  Solving for Ux, Initial residual = 0.0260177, Final residual = 7.48728e-17, No Iterations 6
smoothSolver:  Solving for Uy, Initial residual = 0.0225376, Final residual = 1.1527e-16, No Iterations 6
smoothSolver:  Solving for Uz, Initial residual = 0, Final residual = 0, No Iterations 0
smoothSolver:  Solving for e, Initial residual = 0.0136192, Final residual = 2.65063e-17, No Iterations 6
DICPCG:  Solving for p, Initial residual = 0.00229356, Final residual = 1.55601e-17, No Iterations 3
diagonal:  Solving for rho, Initial residual = 0, Final residual = 0, No Iterations 0
time step continuity errors : sum local = 1.59379e-16, global = 9.37522e-17, cumulative = 9.63181e-16
DICPCG:  Solving for p, Initial residual = 0.000167643, Final residual = 5.76972e-18, No Iterations 3
diagonal:  Solving for rho, Initial residual = 0, Final residual = 0, No Iterations 0
time step continuity errors : sum local = 1.35447e-16, global = 7.57419e-17, cumulative = 1.03892e-15
DICPCG:  Solving for p, Initial residual = 1.40045e-05, Final residual = 1.79612e-19, No Iterations 3
diagonal:  Solving for rho, Initial residual = 0, Final residual = 0, No Iterations 0
time step continuity errors : sum local = 1.38161e-16, global = 2.61519e-17, cumulative = 1.06507e-15
smoothSolver:  Solving for Bx, Initial residual = 0.114262, Final residual = 2.78923e-15, No Iterations 1000
smoothSolver:  Solving for By, Initial residual = 9.44278e-05, Final residual = 5.59826e-17, No Iterations 3
smoothSolver:  Solving for Bz, Initial residual = 0, Final residual = 0, No Iterations 0
DICPCG:  Solving for pB, Initial residual = 0.10067, Final residual = 1.61314e-16, No Iterations 14
magnetic flux divergence error = 5.55112e-21
smoothSolver:  Solving for Bx, Initial residual = 2.56464e-17, Final residual = 2.56464e-17, No Iterations 0
smoothSolver:  Solving for By, Initial residual = 1.25175e-17, Final residual = 1.25175e-17, No Iterations 0
smoothSolver:  Solving for Bz, Initial residual = 0, Final residual = 0, No Iterations 0
DICPCG:  Solving for pB, Initial residual = 6.96274e-16, Final residual = 6.96274e-16, No Iterations 0
magnetic flux divergence error = 5.55112e-21
smoothSolver:  Solving for Bx, Initial residual = 2.56464e-17, Final residual = 2.56464e-17, No Iterations 0
smoothSolver:  Solving for By, Initial residual = 1.25175e-17, Final residual = 1.25175e-17, No Iterations 0
smoothSolver:  Solving for Bz, Initial residual = 0, Final residual = 0, No Iterations 0
DICPCG:  Solving for pB, Initial residual = 6.96274e-16, Final residual = 6.96274e-16, No Iterations 0
magnetic flux divergence error = 5.55112e-21
ExecutionTime = 0.24 s  ClockTime = 1 s

Courant Number mean: 0.00479833 max: 0.140976
deltaT = 5e-05
Time = 0.000397989

PIMPLE: iteration 1
diagonal:  Solving for rho, Initial residual = 0, Final residual = 0, No Iterations 0
smoothSolver:  Solving for Ux, Initial residual = 0.0274464, Final residual = 6.80121e-17, No Iterations 6
smoothSolver:  Solving for Uy, Initial residual = 0.0214244, Final residual = 1.13415e-16, No Iterations 6
smoothSolver:  Solving for Uz, Initial residual = 0, Final residual = 0, No Iterations 0
smoothSolver:  Solving for e, Initial residual = 0.0146323, Final residual = 2.89194e-17, No Iterations 6
DICPCG:  Solving for p, Initial residual = 0.00240289, Final residual = 2.83851e-17, No Iterations 3
diagonal:  Solving for rho, Initial residual = 0, Final residual = 0, No Iterations 0
time step continuity errors : sum local = 2.01814e-16, global = 1.30266e-16, cumulative = 1.19534e-15
DICPCG:  Solving for p, Initial residual = 0.000180359, Final residual = 6.27902e-18, No Iterations 3
diagonal:  Solving for rho, Initial residual = 0, Final residual = 0, No Iterations 0
time step continuity errors : sum local = 1.3002e-16, global = 6.88339e-17, cumulative = 1.26417e-15
DICPCG:  Solving for p, Initial residual = 1.50183e-05, Final residual = 2.28041e-19, No Iterations 3
diagonal:  Solving for rho, Initial residual = 0, Final residual = 0, No Iterations 0
time step continuity errors : sum local = 1.55431e-16, global = 1.01154e-16, cumulative = 1.36533e-15
smoothSolver:  Solving for Bx, Initial residual = 0.0936135, Final residual = 2.20448e-15, No Iterations 1000
smoothSolver:  Solving for By, Initial residual = 9.35439e-05, Final residual = 5.63504e-17, No Iterations 3
smoothSolver:  Solving for Bz, Initial residual = 0, Final residual = 0, No Iterations 0
DICPCG:  Solving for pB, Initial residual = 0.0850923, Final residual = 6.21127e-17, No Iterations 14
magnetic flux divergence error = 1.11022e-20
smoothSolver:  Solving for Bx, Initial residual = 1.4879e-16, Final residual = 1.4879e-16, No Iterations 0
smoothSolver:  Solving for By, Initial residual = 1.13817e-17, Final residual = 1.13817e-17, No Iterations 0
smoothSolver:  Solving for Bz, Initial residual = 0, Final residual = 0, No Iterations 0
DICPCG:  Solving for pB, Initial residual = 8.49074e-16, Final residual = 8.49074e-16, No Iterations 0
magnetic flux divergence error = 1.11022e-20
smoothSolver:  Solving for Bx, Initial residual = 1.4879e-16, Final residual = 1.4879e-16, No Iterations 0
smoothSolver:  Solving for By, Initial residual = 1.13817e-17, Final residual = 1.13817e-17, No Iterations 0
smoothSolver:  Solving for Bz, Initial residual = 0, Final residual = 0, No Iterations 0
DICPCG:  Solving for pB, Initial residual = 8.49074e-16, Final residual = 8.49074e-16, No Iterations 0
magnetic flux divergence error = 1.11022e-20
ExecutionTime = 0.24 s  ClockTime = 1 s

Courant Number mean: 0.00531428 max: 0.143768
deltaT = 5e-05
Time = 0.000447989

PIMPLE: iteration 1
diagonal:  Solving for rho, Initial residual = 0, Final residual = 0, No Iterations 0
smoothSolver:  Solving for Ux, Initial residual = 0.0275834, Final residual = 5.20866e-17, No Iterations 6
smoothSolver:  Solving for Uy, Initial residual = 0.0203193, Final residual = 9.72278e-17, No Iterations 6
smoothSolver:  Solving for Uz, Initial residual = 0, Final residual = 0, No Iterations 0
smoothSolver:  Solving for e, Initial residual = 0.0137139, Final residual = 6.46636e-17, No Iterations 5
DICPCG:  Solving for p, Initial residual = 0.00232179, Final residual = 5.87449e-17, No Iterations 3
diagonal:  Solving for rho, Initial residual = 0, Final residual = 0, No Iterations 0
time step continuity errors : sum local = 2.74842e-16, global = 9.47391e-17, cumulative = 1.46007e-15
DICPCG:  Solving for p, Initial residual = 0.000160304, Final residual = 8.83961e-18, No Iterations 3
diagonal:  Solving for rho, Initial residual = 0, Final residual = 0, No Iterations 0
time step continuity errors : sum local = 1.66534e-16, global = 5.94587e-17, cumulative = 1.51953e-15
DICPCG:  Solving for p, Initial residual = 1.38957e-05, Final residual = 5.67775e-19, No Iterations 3
diagonal:  Solving for rho, Initial residual = 0, Final residual = 0, No Iterations 0
time step continuity errors : sum local = 1.35941e-16, global = 8.21566e-17, cumulative = 1.60168e-15
smoothSolver:  Solving for Bx, Initial residual = 0.0775034, Final residual = 1.70857e-15, No Iterations 1000
smoothSolver:  Solving for By, Initial residual = 9.26726e-05, Final residual = 5.26082e-17, No Iterations 3
smoothSolver:  Solving for Bz, Initial residual = 0, Final residual = 0, No Iterations 0
DICPCG:  Solving for pB, Initial residual = 0.0729517, Final residual = 1.04958e-16, No Iterations 14
magnetic flux divergence error = 5.55112e-21
smoothSolver:  Solving for Bx, Initial residual = 0, Final residual = 0, No Iterations 0
smoothSolver:  Solving for By, Initial residual = 1.08146e-17, Final residual = 1.08146e-17, No Iterations 0
smoothSolver:  Solving for Bz, Initial residual = 0, Final residual = 0, No Iterations 0
DICPCG:  Solving for pB, Initial residual = 5.16164e-16, Final residual = 5.16164e-16, No Iterations 0
magnetic flux divergence error = 5.55112e-21
smoothSolver:  Solving for Bx, Initial residual = 0, Final residual = 0, No Iterations 0
smoothSolver:  Solving for By, Initial residual = 1.08146e-17, Final residual = 1.08146e-17, No Iterations 0
smoothSolver:  Solving for Bz, Initial residual = 0, Final residual = 0, No Iterations 0
DICPCG:  Solving for pB, Initial residual = 5.16164e-16, Final residual = 5.16164e-16, No Iterations 0
magnetic flux divergence error = 5.55112e-21
ExecutionTime = 0.25 s  ClockTime = 1 s

Courant Number mean: 0.00584679 max: 0.148639
deltaT = 5e-05
Time = 0.000497989

PIMPLE: iteration 1
diagonal:  Solving for rho, Initial residual = 0, Final residual = 0, No Iterations 0
smoothSolver:  Solving for Ux, Initial residual = 0.0262774, Final residual = 7.36977e-17, No Iterations 6
smoothSolver:  Solving for Uy, Initial residual = 0.0191232, Final residual = 1.03703e-16, No Iterations 6
smoothSolver:  Solving for Uz, Initial residual = 0, Final residual = 0, No Iterations 0
smoothSolver:  Solving for e, Initial residual = 0.0153497, Final residual = 2.82684e-17, No Iterations 6
DICPCG:  Solving for p, Initial residual = 0.00216531, Final residual = 4.90668e-17, No Iterations 3
diagonal:  Solving for rho, Initial residual = 0, Final residual = 0, No Iterations 0
time step continuity errors : sum local = 2.1637e-16, global = 1.40875e-16, cumulative = 1.74256e-15
DICPCG:  Solving for p, Initial residual = 0.000132614, Final residual = 7.59957e-18, No Iterations 3
diagonal:  Solving for rho, Initial residual = 0, Final residual = 0, No Iterations 0
time step continuity errors : sum local = 1.38408e-16, global = 3.08396e-17, cumulative = 1.7734e-15
DICPCG:  Solving for p, Initial residual = 1.11208e-05, Final residual = 2.78163e-19, No Iterations 3
diagonal:  Solving for rho, Initial residual = 0, Final residual = 0, No Iterations 0
time step continuity errors : sum local = 1.25332e-16, global = 8.7831e-17, cumulative = 1.86123e-15
smoothSolver:  Solving for Bx, Initial residual = 0.0689323, Final residual = 1.67581e-15, No Iterations 1000
smoothSolver:  Solving for By, Initial residual = 9.18137e-05, Final residual = 5.32878e-17, No Iterations 3
smoothSolver:  Solving for Bz, Initial residual = 0, Final residual = 0, No Iterations 0
DICPCG:  Solving for pB, Initial residual = 0.0610165, Final residual = 5.43021e-17, No Iterations 14
magnetic flux divergence error = 9.99201e-21
smoothSolver:  Solving for Bx, Initial residual = 4.79503e-17, Final residual = 4.79503e-17, No Iterations 0
smoothSolver:  Solving for By, Initial residual = 9.67799e-18, Final residual = 9.67799e-18, No Iterations 0
smoothSolver:  Solving for Bz, Initial residual = 0, Final residual = 0, No Iterations 0
DICPCG:  Solving for pB, Initial residual = 6.4699e-16, Final residual = 6.4699e-16, No Iterations 0
magnetic flux divergence error = 9.99201e-21
smoothSolver:  Solving for Bx, Initial residual = 4.79503e-17, Final residual = 4.79503e-17, No Iterations 0
smoothSolver:  Solving for By, Initial residual = 9.67799e-18, Final residual = 9.67799e-18, No Iterations 0
smoothSolver:  Solving for Bz, Initial residual = 0, Final residual = 0, No Iterations 0
DICPCG:  Solving for pB, Initial residual = 6.4699e-16, Final residual = 6.4699e-16, No Iterations 0
magnetic flux divergence error = 9.99201e-21
ExecutionTime = 0.26 s  ClockTime = 1 s

Courant Number mean: 0.00639249 max: 0.149661
deltaT = 5e-05
Time = 0.000547989

PIMPLE: iteration 1
diagonal:  Solving for rho, Initial residual = 0, Final residual = 0, No Iterations 0
smoothSolver:  Solving for Ux, Initial residual = 0.0244182, Final residual = 7.91062e-17, No Iterations 6
smoothSolver:  Solving for Uy, Initial residual = 0.0178174, Final residual = 1.18285e-16, No Iterations 6
smoothSolver:  Solving for Uz, Initial residual = 0, Final residual = 0, No Iterations 0
smoothSolver:  Solving for e, Initial residual = 0.0161961, Final residual = 5.62351e-17, No Iterations 6
DICPCG:  Solving for p, Initial residual = 0.00217991, Final residual = 2.88641e-17, No Iterations 3
diagonal:  Solving for rho, Initial residual = 0, Final residual = 0, No Iterations 0
time step continuity errors : sum local = 2.03788e-16, global = 1.30266e-16, cumulative = 1.99149e-15
DICPCG:  Solving for p, Initial residual = 0.000142856, Final residual = 6.14922e-18, No Iterations 3
diagonal:  Solving for rho, Initial residual = 0, Final residual = 0, No Iterations 0
time step continuity errors : sum local = 1.41862e-16, global = 5.55112e-17, cumulative = 2.04701e-15
DICPCG:  Solving for p, Initial residual = 1.28592e-05, Final residual = 2.86625e-19, No Iterations 3
diagonal:  Solving for rho, Initial residual = 0, Final residual = 0, No Iterations 0
time step continuity errors : sum local = 1.48523e-16, global = 8.88179e-17, cumulative = 2.13582e-15
smoothSolver:  Solving for Bx, Initial residual = 0.0626121, Final residual = 1.51224e-15, No Iterations 1000
smoothSolver:  Solving for By, Initial residual = 9.09669e-05, Final residual = 5.40181e-17, No Iterations 3
smoothSolver:  Solving for Bz, Initial residual = 0, Final residual = 0, No Iterations 0
DICPCG:  Solving for pB, Initial residual = 0.0534543, Final residual = 1.51452e-16, No Iterations 14
magnetic flux divergence error = 1.11022e-20
smoothSolver:  Solving for Bx, Initial residual = 1.00255e-16, Final residual = 1.00255e-16, No Iterations 0
smoothSolver:  Solving for By, Initial residual = 1.19573e-17, Final residual = 1.19573e-17, No Iterations 0
smoothSolver:  Solving for Bz, Initial residual = 0, Final residual = 0, No Iterations 0
DICPCG:  Solving for pB, Initial residual = 9.15375e-16, Final residual = 9.15375e-16, No Iterations 0
magnetic flux divergence error = 1.11022e-20
smoothSolver:  Solving for Bx, Initial residual = 1.00255e-16, Final residual = 1.00255e-16, No Iterations 0
smoothSolver:  Solving for By, Initial residual = 1.19573e-17, Final residual = 1.19573e-17, No Iterations 0
smoothSolver:  Solving for Bz, Initial residual = 0, Final residual = 0, No Iterations 0
DICPCG:  Solving for pB, Initial residual = 9.15375e-16, Final residual = 9.15375e-16, No Iterations 0
magnetic flux divergence error = 1.11022e-20
ExecutionTime = 0.27 s  ClockTime = 1 s

Courant Number mean: 0.00694815 max: 0.14745
deltaT = 5e-05
Time = 0.000597989

PIMPLE: iteration 1
diagonal:  Solving for rho, Initial residual = 0, Final residual = 0, No Iterations 0
smoothSolver:  Solving for Ux, Initial residual = 0.0239431, Final residual = 4.859e-17, No Iterations 6
smoothSolver:  Solving for Uy, Initial residual = 0.0164296, Final residual = 1.02528e-16, No Iterations 6
smoothSolver:  Solving for Uz, Initial residual = 0, Final residual = 0, No Iterations 0
smoothSolver:  Solving for e, Initial residual = 0.0162836, Final residual = 3.54867e-17, No Iterations 6
DICPCG:  Solving for p, Initial residual = 0.00224338, Final residual = 6.79905e-17, No Iterations 3
diagonal:  Solving for rho, Initial residual = 0, Final residual = 0, No Iterations 0
time step continuity errors : sum local = 2.53131e-16, global = 3.00994e-17, cumulative = 2.16592e-15
DICPCG:  Solving for p, Initial residual = 0.000137825, Final residual = 5.40421e-18, No Iterations 3
diagonal:  Solving for rho, Initial residual = 0, Final residual = 0, No Iterations 0
time step continuity errors : sum local = 1.60119e-16, global = 2.34381e-17, cumulative = 2.18936e-15
DICPCG:  Solving for p, Initial residual = 1.29613e-05, Final residual = 5.5826e-19, No Iterations 3
diagonal:  Solving for rho, Initial residual = 0, Final residual = 0, No Iterations 0
time step continuity errors : sum local = 1.59132e-16, global = 9.69596e-17, cumulative = 2.28632e-15
smoothSolver:  Solving for Bx, Initial residual = 0.0562332, Final residual = 1.28699e-15, No Iterations 1000
smoothSolver:  Solving for By, Initial residual = 9.01322e-05, Final residual = 5.45143e-17, No Iterations 3
smoothSolver:  Solving for Bz, Initial residual = 0, Final residual = 0, No Iterations 0
DICPCG:  Solving for pB, Initial residual = 0.0484251, Final residual = 5.2338e-17, No Iterations 14
magnetic flux divergence error = 1.22125e-20
smoothSolver:  Solving for Bx, Initial residual = 2.60651e-17, Final residual = 2.60651e-17, No Iterations 0
smoothSolver:  Solving for By, Initial residual = 1.0251e-17, Final residual = 1.0251e-17, No Iterations 0
smoothSolver:  Solving for Bz, Initial residual = 0, Final residual = 0, No Iterations 0
DICPCG:  Solving for pB, Initial residual = 8.56038e-16, Final residual = 8.56038e-16, No Iterations 0
magnetic flux divergence error = 1.22125e-20
smoothSolver:  Solving for Bx, Initial residual = 2.60651e-17, Final residual = 2.60651e-17, No Iterations 0
smoothSolver:  Solving for By, Initial residual = 1.0251e-17, Final residual = 1.0251e-17, No Iterations 0
smoothSolver:  Solving for Bz, Initial residual = 0, Final residual = 0, No Iterations 0
DICPCG:  Solving for pB, Initial residual = 8.56038e-16, Final residual = 8.56038e-16, No Iterations 0
magnetic flux divergence error = 1.22125e-20
ExecutionTime = 0.28 s  ClockTime = 1 s

Courant Number mean: 0.0075129 max: 0.144595
deltaT = 5e-05
Time = 0.000647989

PIMPLE: iteration 1
diagonal:  Solving for rho, Initial residual = 0, Final residual = 0, No Iterations 0
smoothSolver:  Solving for Ux, Initial residual = 0.0221221, Final residual = 6.16445e-17, No Iterations 6
smoothSolver:  Solving for Uy, Initial residual = 0.0150129, Final residual = 9.39696e-17, No Iterations 6
smoothSolver:  Solving for Uz, Initial residual = 0, Final residual = 0, No Iterations 0
smoothSolver:  Solving for e, Initial residual = 0.0174402, Final residual = 4.31505e-17, No Iterations 6
DICPCG:  Solving for p, Initial residual = 0.00227911, Final residual = 6.66365e-17, No Iterations 3
diagonal:  Solving for rho, Initial residual = 0, Final residual = 0, No Iterations 0
time step continuity errors : sum local = 2.35614e-16, global = 9.15318e-17, cumulative = 2.37785e-15
DICPCG:  Solving for p, Initial residual = 0.000143357, Final residual = 6.83792e-18, No Iterations 3
diagonal:  Solving for rho, Initial residual = 0, Final residual = 0, No Iterations 0
time step continuity errors : sum local = 1.42849e-16, global = 7.67288e-17, cumulative = 2.45458e-15
DICPCG:  Solving for p, Initial residual = 1.1422e-05, Final residual = 5.61508e-19, No Iterations 3
diagonal:  Solving for rho, Initial residual = 0, Final residual = 0, No Iterations 0
time step continuity errors : sum local = 1.55678e-16, global = 8.01828e-17, cumulative = 2.53476e-15
smoothSolver:  Solving for Bx, Initial residual = 0.0501414, Final residual = 1.13361e-15, No Iterations 1000
smoothSolver:  Solving for By, Initial residual = 8.93092e-05, Final residual = 5.43496e-17, No Iterations 3
smoothSolver:  Solving for Bz, Initial residual = 0, Final residual = 0, No Iterations 0
DICPCG:  Solving for pB, Initial residual = 0.0449595, Final residual = 8.97077e-17, No Iterations 14
magnetic flux divergence error = 1.55431e-20
smoothSolver:  Solving for Bx, Initial residual = 4.79956e-17, Final residual = 4.79956e-17, No Iterations 0
smoothSolver:  Solving for By, Initial residual = 1.1392e-17, Final residual = 1.1392e-17, No Iterations 0
smoothSolver:  Solving for Bz, Initial residual = 0, Final residual = 0, No Iterations 0
DICPCG:  Solving for pB, Initial residual = 1.12064e-15, Final residual = 5.62415e-16, No Iterations 15
magnetic flux divergence error = 2.10942e-20
smoothSolver:  Solving for Bx, Initial residual = 5.99945e-17, Final residual = 5.99945e-17, No Iterations 0
smoothSolver:  Solving for By, Initial residual = 1.1392e-17, Final residual = 1.1392e-17, No Iterations 0
smoothSolver:  Solving for Bz, Initial residual = 0, Final residual = 0, No Iterations 0
DICPCG:  Solving for pB, Initial residual = 1.06909e-15, Final residual = 5.24382e-16, No Iterations 1
magnetic flux divergence error = 5.55112e-21
ExecutionTime = 0.29 s  ClockTime = 1 s

Courant Number mean: 0.00808401 max: 0.146119
deltaT = 5e-05
Time = 0.000697989

PIMPLE: iteration 1
diagonal:  Solving for rho, Initial residual = 0, Final residual = 0, No Iterations 0
smoothSolver:  Solving for Ux, Initial residual = 0.0199717, Final residual = 7.35741e-17, No Iterations 6
smoothSolver:  Solving for Uy, Initial residual = 0.0136004, Final residual = 8.94959e-17, No Iterations 6
smoothSolver:  Solving for Uz, Initial residual = 0, Final residual = 0, No Iterations 0
smoothSolver:  Solving for e, Initial residual = 0.0176569, Final residual = 7.08649e-17, No Iterations 6
DICPCG:  Solving for p, Initial residual = 0.00241162, Final residual = 5.85754e-17, No Iterations 3
diagonal:  Solving for rho, Initial residual = 0, Final residual = 0, No Iterations 0
time step continuity errors : sum local = 2.42276e-16, global = 8.0923e-17, cumulative = 2.61569e-15
DICPCG:  Solving for p, Initial residual = 0.000160423, Final residual = 8.61325e-18, No Iterations 3
diagonal:  Solving for rho, Initial residual = 0, Final residual = 0, No Iterations 0
time step continuity errors : sum local = 1.6308e-16, global = 4.959e-17, cumulative = 2.66528e-15
DICPCG:  Solving for p, Initial residual = 1.43464e-05, Final residual = 9.24187e-19, No Iterations 3
diagonal:  Solving for rho, Initial residual = 0, Final residual = 0, No Iterations 0
time step continuity errors : sum local = 1.83064e-16, global = 5.62513e-17, cumulative = 2.72153e-15
smoothSolver:  Solving for Bx, Initial residual = 0.0459835, Final residual = 1.10669e-15, No Iterations 1000
smoothSolver:  Solving for By, Initial residual = 8.84978e-05, Final residual = 5.23465e-17, No Iterations 3
smoothSolver:  Solving for Bz, Initial residual = 0, Final residual = 0, No Iterations 0
DICPCG:  Solving for pB, Initial residual = 0.0439425, Final residual = 9.24321e-16, No Iterations 14
magnetic flux divergence error = 2.33147e-20
smoothSolver:  Solving for Bx, Initial residual = 2.22912e-17, Final residual = 2.22912e-17, No Iterations 0
smoothSolver:  Solving for By, Initial residual = 1.02546e-17, Final residual = 1.02546e-17, No Iterations 0
smoothSolver:  Solving for Bz, Initial residual = 0, Final residual = 0, No Iterations 0
DICPCG:  Solving for pB, Initial residual = 1.09846e-15, Final residual = 7.85639e-16, No Iterations 17
magnetic flux divergence error = 1.66533e-20
smoothSolver:  Solving for Bx, Initial residual = 3.34368e-17, Final residual = 3.34368e-17, No Iterations 0
smoothSolver:  Solving for By, Initial residual = 1.02546e-17, Final residual = 1.02546e-17, No Iterations 0
smoothSolver:  Solving for Bz, Initial residual = 0, Final residual = 0, No Iterations 0
DICPCG:  Solving for pB, Initial residual = 1.16595e-15, Final residual = 9.71757e-16, No Iterations 1
magnetic flux divergence error = 1.88738e-20
ExecutionTime = 0.3 s  ClockTime = 1 s

Courant Number mean: 0.00866089 max: 0.1445
deltaT = 5e-05
Time = 0.000747989

PIMPLE: iteration 1
diagonal:  Solving for rho, Initial residual = 0, Final residual = 0, No Iterations 0
smoothSolver:  Solving for Ux, Initial residual = 0.0188943, Final residual = 5.26408e-17, No Iterations 6
smoothSolver:  Solving for Uy, Initial residual = 0.0122347, Final residual = 7.90787e-17, No Iterations 6
smoothSolver:  Solving for Uz, Initial residual = 0, Final residual = 0, No Iterations 0
smoothSolver:  Solving for e, Initial residual = 0.01734, Final residual = 4.60835e-17, No Iterations 6
DICPCG:  Solving for p, Initial residual = 0.00236089, Final residual = 9.02147e-17, No Iterations 3
diagonal:  Solving for rho, Initial residual = 0, Final residual = 0, No Iterations 0
time step continuity errors : sum local = 2.81257e-16, global = 2.02307e-17, cumulative = 2.74176e-15
DICPCG:  Solving for p, Initial residual = 0.000154787, Final residual = 9.84157e-18, No Iterations 3
diagonal:  Solving for rho, Initial residual = 0, Final residual = 0, No Iterations 0
time step continuity errors : sum local = 1.39888e-16, global = 6.68601e-17, cumulative = 2.80862e-15
DICPCG:  Solving for p, Initial residual = 1.43192e-05, Final residual = 8.18481e-19, No Iterations 3
diagonal:  Solving for rho, Initial residual = 0, Final residual = 0, No Iterations 0
time step continuity errors : sum local = 1.37668e-16, global = 9.72063e-17, cumulative = 2.90583e-15
smoothSolver:  Solving for Bx, Initial residual = 0.0425072, Final residual = 1.03816e-15, No Iterations 1000
smoothSolver:  Solving for By, Initial residual = 8.76977e-05, Final residual = 5.37891e-17, No Iterations 3
smoothSolver:  Solving for Bz, Initial residual = 0, Final residual = 0, No Iterations 0
DICPCG:  Solving for pB, Initial residual = 0.0415278, Final residual = 7.6624e-17, No Iterations 14
magnetic flux divergence error = 1.9984e-20
smoothSolver:  Solving for Bx, Initial residual = 3.12683e-17, Final residual = 3.12683e-17, No Iterations 0
smoothSolver:  Solving for By, Initial residual = 1.02564e-17, Final residual = 1.02564e-17, No Iterations 0
smoothSolver:  Solving for Bz, Initial residual = 0, Final residual = 0, No Iterations 0
DICPCG:  Solving for pB, Initial residual = 9.44052e-16, Final residual = 9.44052e-16, No Iterations 0
magnetic flux divergence error = 1.9984e-20
smoothSolver:  Solving for Bx, Initial residual = 3.12683e-17, Final residual = 3.12683e-17, No Iterations 0
smoothSolver:  Solving for By, Initial residual = 1.02564e-17, Final residual = 1.02564e-17, No Iterations 0
smoothSolver:  Solving for Bz, Initial residual = 0, Final residual = 0, No Iterations 0
DICPCG:  Solving for pB, Initial residual = 9.44052e-16, Final residual = 9.44052e-16, No Iterations 0
magnetic flux divergence error = 1.9984e-20
ExecutionTime = 0.31 s  ClockTime = 1 s

Courant Number mean: 0.00923772 max: 0.141201
deltaT = 5e-05
Time = 0.000797989

PIMPLE: iteration 1
diagonal:  Solving for rho, Initial residual = 0, Final residual = 0, No Iterations 0
smoothSolver:  Solving for Ux, Initial residual = 0.0171285, Final residual = 6.53843e-17, No Iterations 6
smoothSolver:  Solving for Uy, Initial residual = 0.0116174, Final residual = 4.58763e-17, No Iterations 6
smoothSolver:  Solving for Uz, Initial residual = 0, Final residual = 0, No Iterations 0
smoothSolver:  Solving for e, Initial residual = 0.0177542, Final residual = 4.52782e-17, No Iterations 6
DICPCG:  Solving for p, Initial residual = 0.00238276, Final residual = 3.39733e-17, No Iterations 3
diagonal:  Solving for rho, Initial residual = 0, Final residual = 0, No Iterations 0
time step continuity errors : sum local = 2.19084e-16, global = 9.918e-17, cumulative = 3.00501e-15
DICPCG:  Solving for p, Initial residual = 0.000160522, Final residual = 7.60438e-18, No Iterations 3
diagonal:  Solving for rho, Initial residual = 0, Final residual = 0, No Iterations 0
time step continuity errors : sum local = 1.65547e-16, global = 1.00907e-16, cumulative = 3.10591e-15
DICPCG:  Solving for p, Initial residual = 1.34348e-05, Final residual = 6.64435e-19, No Iterations 3
diagonal:  Solving for rho, Initial residual = 0, Final residual = 0, No Iterations 0
time step continuity errors : sum local = 1.56171e-16, global = 5.84718e-17, cumulative = 3.16438e-15
smoothSolver:  Solving for Bx, Initial residual = 0.0387618, Final residual = 1.04992e-15, No Iterations 1000
smoothSolver:  Solving for By, Initial residual = 8.69089e-05, Final residual = 5.35192e-17, No Iterations 3
smoothSolver:  Solving for Bz, Initial residual = 0, Final residual = 0, No Iterations 0
DICPCG:  Solving for pB, Initial residual = 0.0382027, Final residual = 4.69226e-17, No Iterations 14
magnetic flux divergence error = 2.77556e-20
smoothSolver:  Solving for Bx, Initial residual = 9.7971e-18, Final residual = 9.7971e-18, No Iterations 0
smoothSolver:  Solving for By, Initial residual = 9.68832e-18, Final residual = 9.68832e-18, No Iterations 0
smoothSolver:  Solving for Bz, Initial residual = 0, Final residual = 0, No Iterations 0
DICPCG:  Solving for pB, Initial residual = 1.3475e-15, Final residual = 3.74095e-16, No Iterations 1
magnetic flux divergence error = 1.33227e-20
smoothSolver:  Solving for Bx, Initial residual = 7.83768e-17, Final residual = 7.83768e-17, No Iterations 0
smoothSolver:  Solving for By, Initial residual = 9.68832e-18, Final residual = 9.68832e-18, No Iterations 0
smoothSolver:  Solving for Bz, Initial residual = 0, Final residual = 0, No Iterations 0
DICPCG:  Solving for pB, Initial residual = 4.78317e-16, Final residual = 4.78317e-16, No Iterations 0
magnetic flux divergence error = 1.33227e-20
ExecutionTime = 0.31 s  ClockTime = 1 s

Courant Number mean: 0.00981227 max: 0.141781
deltaT = 5e-05
Time = 0.000847989

PIMPLE: iteration 1
diagonal:  Solving for rho, Initial residual = 0, Final residual = 0, No Iterations 0
smoothSolver:  Solving for Ux, Initial residual = 0.0157182, Final residual = 5.96063e-17, No Iterations 6
smoothSolver:  Solving for Uy, Initial residual = 0.0111076, Final residual = 5.50286e-17, No Iterations 6
smoothSolver:  Solving for Uz, Initial residual = 0, Final residual = 0, No Iterations 0
smoothSolver:  Solving for e, Initial residual = 0.0175942, Final residual = 4.27074e-17, No Iterations 6
DICPCG:  Solving for p, Initial residual = 0.00246468, Final residual = 5.15095e-17, No Iterations 3
diagonal:  Solving for rho, Initial residual = 0, Final residual = 0, No Iterations 0
time step continuity errors : sum local = 2.40549e-16, global = 2.59052e-17, cumulative = 3.19029e-15
DICPCG:  Solving for p, Initial residual = 0.000169367, Final residual = 8.7597e-18, No Iterations 3
diagonal:  Solving for rho, Initial residual = 0, Final residual = 0, No Iterations 0
time step continuity errors : sum local = 1.62093e-16, global = 7.22879e-17, cumulative = 3.26258e-15
DICPCG:  Solving for p, Initial residual = 1.50739e-05, Final residual = 7.85392e-19, No Iterations 3
diagonal:  Solving for rho, Initial residual = 0, Final residual = 0, No Iterations 0
time step continuity errors : sum local = 1.55925e-16, global = 5.03301e-17, cumulative = 3.31291e-15
smoothSolver:  Solving for Bx, Initial residual = 0.0366663, Final residual = 8.6846e-16, No Iterations 4
smoothSolver:  Solving for By, Initial residual = 8.6131e-05, Final residual = 5.24451e-17, No Iterations 3
smoothSolver:  Solving for Bz, Initial residual = 0, Final residual = 0, No Iterations 0
DICPCG:  Solving for pB, Initial residual = 0.0383255, Final residual = 4.98515e-17, No Iterations 14
magnetic flux divergence error = 2.44249e-20
smoothSolver:  Solving for Bx, Initial residual = 3.6985e-17, Final residual = 3.6985e-17, No Iterations 0
smoothSolver:  Solving for By, Initial residual = 1.14e-17, Final residual = 1.14e-17, No Iterations 0
smoothSolver:  Solving for Bz, Initial residual = 0, Final residual = 0, No Iterations 0
DICPCG:  Solving for pB, Initial residual = 1.33478e-15, Final residual = 6.09628e-16, No Iterations 1
magnetic flux divergence error = 1.9984e-20
smoothSolver:  Solving for Bx, Initial residual = 1.84925e-17, Final residual = 1.84925e-17, No Iterations 0
smoothSolver:  Solving for By, Initial residual = 1.14e-17, Final residual = 1.14e-17, No Iterations 0
smoothSolver:  Solving for Bz, Initial residual = 0, Final residual = 0, No Iterations 0
DICPCG:  Solving for pB, Initial residual = 1.08549e-15, Final residual = 5.42266e-16, No Iterations 1
magnetic flux divergence error = 1.33227e-20
ExecutionTime = 0.32 s  ClockTime = 1 s

Courant Number mean: 0.0103862 max: 0.139673
deltaT = 5e-05
Time = 0.000897989

PIMPLE: iteration 1
diagonal:  Solving for rho, Initial residual = 0, Final residual = 0, No Iterations 0
smoothSolver:  Solving for Ux, Initial residual = 0.0147531, Final residual = 3.62177e-17, No Iterations 6
smoothSolver:  Solving for Uy, Initial residual = 0.010605, Final residual = 4.72921e-17, No Iterations 6
smoothSolver:  Solving for Uz, Initial residual = 0, Final residual = 0, No Iterations 0
smoothSolver:  Solving for e, Initial residual = 0.0175778, Final residual = 4.47945e-17, No Iterations 6
DICPCG:  Solving for p, Initial residual = 0.00243461, Final residual = 7.63027e-17, No Iterations 3
diagonal:  Solving for rho, Initial residual = 0, Final residual = 0, No Iterations 0
time step continuity errors : sum local = 2.50911e-16, global = -1.70234e-17, cumulative = 3.29588e-15
DICPCG:  Solving for p, Initial residual = 0.000155812, Final residual = 8.68181e-18, No Iterations 3
diagonal:  Solving for rho, Initial residual = 0, Final residual = 0, No Iterations 0
time step continuity errors : sum local = 1.71715e-16, global = 8.7831e-17, cumulative = 3.38372e-15
DICPCG:  Solving for p, Initial residual = 1.36888e-05, Final residual = 6.68223e-19, No Iterations 3
diagonal:  Solving for rho, Initial residual = 0, Final residual = 0, No Iterations 0
time step continuity errors : sum local = 1.68754e-16, global = 9.27654e-17, cumulative = 3.47648e-15
smoothSolver:  Solving for Bx, Initial residual = 0.0341666, Final residual = 9.00538e-16, No Iterations 4
smoothSolver:  Solving for By, Initial residual = 8.5364e-05, Final residual = 5.26237e-17, No Iterations 3
smoothSolver:  Solving for Bz, Initial residual = 0, Final residual = 0, No Iterations 0
DICPCG:  Solving for pB, Initial residual = 0.036558, Final residual = 3.15258e-16, No Iterations 14
magnetic flux divergence error = 2.44249e-20
smoothSolver:  Solving for Bx, Initial residual = 7.87965e-17, Final residual = 7.87965e-17, No Iterations 0
smoothSolver:  Solving for By, Initial residual = 1.08318e-17, Final residual = 1.08318e-17, No Iterations 0
smoothSolver:  Solving for Bz, Initial residual = 0, Final residual = 0, No Iterations 0
DICPCG:  Solving for pB, Initial residual = 1.35622e-15, Final residual = 2.18147e-16, No Iterations 1
magnetic flux divergence error = 1.88738e-20
smoothSolver:  Solving for Bx, Initial residual = 8.75517e-17, Final residual = 8.75517e-17, No Iterations 0
smoothSolver:  Solving for By, Initial residual = 1.08318e-17, Final residual = 1.08318e-17, No Iterations 0
smoothSolver:  Solving for Bz, Initial residual = 0, Final residual = 0, No Iterations 0
DICPCG:  Solving for pB, Initial residual = 8.29084e-16, Final residual = 8.29084e-16, No Iterations 0
magnetic flux divergence error = 1.88738e-20
ExecutionTime = 0.32 s  ClockTime = 1 s

Courant Number mean: 0.0109526 max: 0.139032
deltaT = 5e-05
Time = 0.000947989

PIMPLE: iteration 1
diagonal:  Solving for rho, Initial residual = 0, Final residual = 0, No Iterations 0
smoothSolver:  Solving for Ux, Initial residual = 0.0135011, Final residual = 4.58267e-17, No Iterations 6
smoothSolver:  Solving for Uy, Initial residual = 0.0100993, Final residual = 3.75495e-17, No Iterations 6
smoothSolver:  Solving for Uz, Initial residual = 0, Final residual = 0, No Iterations 0
smoothSolver:  Solving for e, Initial residual = 0.0177967, Final residual = 4.64701e-17, No Iterations 6
DICPCG:  Solving for p, Initial residual = 0.00246293, Final residual = 2.95186e-17, No Iterations 3
diagonal:  Solving for rho, Initial residual = 0, Final residual = 0, No Iterations 0
time step continuity errors : sum local = 1.93672e-16, global = 4.26819e-17, cumulative = 3.51916e-15
DICPCG:  Solving for p, Initial residual = 0.000158995, Final residual = 6.12995e-18, No Iterations 3
diagonal:  Solving for rho, Initial residual = 0, Final residual = 0, No Iterations 0
time step continuity errors : sum local = 1.8257e-16, global = 5.57579e-17, cumulative = 3.57492e-15
DICPCG:  Solving for p, Initial residual = 1.34288e-05, Final residual = 5.75124e-19, No Iterations 3
diagonal:  Solving for rho, Initial residual = 0, Final residual = 0, No Iterations 0
time step continuity errors : sum local = 1.65793e-16, global = 6.01988e-17, cumulative = 3.63512e-15
smoothSolver:  Solving for Bx, Initial residual = 0.0320916, Final residual = 8.42588e-16, No Iterations 4
smoothSolver:  Solving for By, Initial residual = 8.46076e-05, Final residual = 5.16929e-17, No Iterations 3
smoothSolver:  Solving for Bz, Initial residual = 0, Final residual = 0, No Iterations 0
DICPCG:  Solving for pB, Initial residual = 0.0351748, Final residual = 4.82856e-17, No Iterations 14
magnetic flux divergence error = 2.77556e-20
smoothSolver:  Solving for Bx, Initial residual = 4.98805e-17, Final residual = 4.98805e-17, No Iterations 0
smoothSolver:  Solving for By, Initial residual = 1.08337e-17, Final residual = 1.08337e-17, No Iterations 0
smoothSolver:  Solving for Bz, Initial residual = 0, Final residual = 0, No Iterations 0
DICPCG:  Solving for pB, Initial residual = 1.47759e-15, Final residual = 8.00984e-16, No Iterations 1
magnetic flux divergence error = 2.33147e-20
smoothSolver:  Solving for Bx, Initial residual = 4.15671e-17, Final residual = 4.15671e-17, No Iterations 0
smoothSolver:  Solving for By, Initial residual = 1.08337e-17, Final residual = 1.08337e-17, No Iterations 0
smoothSolver:  Solving for Bz, Initial residual = 0, Final residual = 0, No Iterations 0
DICPCG:  Solving for pB, Initial residual = 1.3252e-15, Final residual = 9.60752e-16, No Iterations 26
magnetic flux divergence error = 4.77396e-20
ExecutionTime = 0.34 s  ClockTime = 1 s

Courant Number mean: 0.0115146 max: 0.138541
deltaT = 5e-05
Time = 0.000997989

PIMPLE: iteration 1
diagonal:  Solving for rho, Initial residual = 0, Final residual = 0, No Iterations 0
smoothSolver:  Solving for Ux, Initial residual = 0.0127987, Final residual = 4.58735e-17, No Iterations 6
smoothSolver:  Solving for Uy, Initial residual = 0.00959211, Final residual = 3.57474e-17, No Iterations 6
smoothSolver:  Solving for Uz, Initial residual = 0, Final residual = 0, No Iterations 0
smoothSolver:  Solving for e, Initial residual = 0.0173385, Final residual = 3.92879e-17, No Iterations 6
DICPCG:  Solving for p, Initial residual = 0.00246467, Final residual = 4.20625e-17, No Iterations 3
diagonal:  Solving for rho, Initial residual = 0, Final residual = 0, No Iterations 0
time step continuity errors : sum local = 2.09956e-16, global = 8.11697e-17, cumulative = 3.71629e-15
DICPCG:  Solving for p, Initial residual = 0.000165264, Final residual = 7.07043e-18, No Iterations 3
diagonal:  Solving for rho, Initial residual = 0, Final residual = 0, No Iterations 0
time step continuity errors : sum local = 1.51484e-16, global = 3.99681e-17, cumulative = 3.75626e-15
DICPCG:  Solving for p, Initial residual = 1.43242e-05, Final residual = 5.65841e-19, No Iterations 3
diagonal:  Solving for rho, Initial residual = 0, Final residual = 0, No Iterations 0
time step continuity errors : sum local = 1.60612e-16, global = 8.85712e-17, cumulative = 3.84483e-15
smoothSolver:  Solving for Bx, Initial residual = 0.0308091, Final residual = 6.93974e-16, No Iterations 4
smoothSolver:  Solving for By, Initial residual = 8.38617e-05, Final residual = 5.27593e-17, No Iterations 3
smoothSolver:  Solving for Bz, Initial residual = 0, Final residual = 0, No Iterations 0
DICPCG:  Solving for pB, Initial residual = 0.037266, Final residual = 4.47352e-16, No Iterations 14
magnetic flux divergence error = 3.77476e-20
smoothSolver:  Solving for Bx, Initial residual = 8.70481e-17, Final residual = 8.70481e-17, No Iterations 0
smoothSolver:  Solving for By, Initial residual = 9.12462e-18, Final residual = 9.12462e-18, No Iterations 0
smoothSolver:  Solving for Bz, Initial residual = 0, Final residual = 0, No Iterations 0
DICPCG:  Solving for pB, Initial residual = 1.94358e-15, Final residual = 5.65712e-16, No Iterations 17
magnetic flux divergence error = 4.66294e-20
smoothSolver:  Solving for Bx, Initial residual = 1.42442e-16, Final residual = 1.42442e-16, No Iterations 0
smoothSolver:  Solving for By, Initial residual = 9.12462e-18, Final residual = 9.12462e-18, No Iterations 0
smoothSolver:  Solving for Bz, Initial residual = 0, Final residual = 0, No Iterations 0
DICPCG:  Solving for pB, Initial residual = 2.76366e-15, Final residual = 8.95676e-16, No Iterations 1
magnetic flux divergence error = 3.21965e-20
ExecutionTime = 0.34 s  ClockTime = 1 s

    functionObjects::components components(U) writing field: Ux
    functionObjects::components components(U) writing field: Uy
    functionObjects::components components(U) writing field: Uz
Courant Number mean: 0.012076 max: 0.135571
deltaT = 5e-05
Time = 0.00104799

PIMPLE: iteration 1
diagonal:  Solving for rho, Initial residual = 0, Final residual = 0, No Iterations 0
smoothSolver:  Solving for Ux, Initial residual = 0.0120551, Final residual = 3.27079e-17, No Iterations 6
smoothSolver:  Solving for Uy, Initial residual = 0.00909025, Final residual = 3.13454e-17, No Iterations 6
smoothSolver:  Solving for Uz, Initial residual = 0, Final residual = 0, No Iterations 0
smoothSolver:  Solving for e, Initial residual = 0.0167737, Final residual = 4.66828e-17, No Iterations 6
DICPCG:  Solving for p, Initial residual = 0.00240155, Final residual = 7.1972e-17, No Iterations 3
diagonal:  Solving for rho, Initial residual = 0, Final residual = 0, No Iterations 0
time step continuity errors : sum local = 2.75089e-16, global = 2.7879e-17, cumulative = 3.87271e-15
DICPCG:  Solving for p, Initial residual = 0.000147159, Final residual = 9.40812e-18, No Iterations 3
diagonal:  Solving for rho, Initial residual = 0, Final residual = 0, No Iterations 0
time step continuity errors : sum local = 1.62093e-16, global = 6.68601e-17, cumulative = 3.93957e-15
DICPCG:  Solving for p, Initial residual = 1.26296e-05, Final residual = 4.51162e-19, No Iterations 3
diagonal:  Solving for rho, Initial residual = 0, Final residual = 0, No Iterations 0
time step continuity errors : sum local = 1.81583e-16, global = 7.10543e-17, cumulative = 4.01062e-15
smoothSolver:  Solving for Bx, Initial residual = 0.0290132, Final residual = 7.00469e-16, No Iterations 4
smoothSolver:  Solving for By, Initial residual = 8.31262e-05, Final residual = 5.38416e-17, No Iterations 3
smoothSolver:  Solving for Bz, Initial residual = 0, Final residual = 0, No Iterations 0
DICPCG:  Solving for pB, Initial residual = 0.0363576, Final residual = 9.07144e-16, No Iterations 14
magnetic flux divergence error = 2.88658e-20
smoothSolver:  Solving for Bx, Initial residual = 3.77481e-17, Final residual = 3.77481e-17, No Iterations 0
smoothSolver:  Solving for By, Initial residual = 1.08373e-17, Final residual = 1.08373e-17, No Iterations 0
smoothSolver:  Solving for Bz, Initial residual = 0, Final residual = 0, No Iterations 0
DICPCG:  Solving for pB, Initial residual = 2.00397e-15, Final residual = 6.56587e-16, No Iterations 2
magnetic flux divergence error = 2.44249e-20
smoothSolver:  Solving for Bx, Initial residual = 2.26489e-17, Final residual = 2.26489e-17, No Iterations 0
smoothSolver:  Solving for By, Initial residual = 1.08373e-17, Final residual = 1.08373e-17, No Iterations 0
smoothSolver:  Solving for Bz, Initial residual = 0, Final residual = 0, No Iterations 0
DICPCG:  Solving for pB, Initial residual = 9.50325e-16, Final residual = 9.50325e-16, No Iterations 0
magnetic flux divergence error = 2.44249e-20
ExecutionTime = 0.35 s  ClockTime = 1 s

Courant Number mean: 0.0126313 max: 0.136869
deltaT = 5e-05
Time = 0.00109799

PIMPLE: iteration 1
diagonal:  Solving for rho, Initial residual = 0, Final residual = 0, No Iterations 0
smoothSolver:  Solving for Ux, Initial residual = 0.0111526, Final residual = 4.43441e-17, No Iterations 6
smoothSolver:  Solving for Uy, Initial residual = 0.00874009, Final residual = 2.26649e-17, No Iterations 6
smoothSolver:  Solving for Uz, Initial residual = 0, Final residual = 0, No Iterations 0
smoothSolver:  Solving for e, Initial residual = 0.0168681, Final residual = 3.60398e-17, No Iterations 6
DICPCG:  Solving for p, Initial residual = 0.00245134, Final residual = 4.95626e-17, No Iterations 3
diagonal:  Solving for rho, Initial residual = 0, Final residual = 0, No Iterations 0
time step continuity errors : sum local = 2.30927e-16, global = 1.97373e-17, cumulative = 4.03036e-15
DICPCG:  Solving for p, Initial residual = 0.000161882, Final residual = 6.34539e-18, No Iterations 3
diagonal:  Solving for rho, Initial residual = 0, Final residual = 0, No Iterations 0
time step continuity errors : sum local = 1.44082e-16, global = 8.38836e-18, cumulative = 4.03875e-15
DICPCG:  Solving for p, Initial residual = 1.32205e-05, Final residual = 4.80353e-19, No Iterations 3
diagonal:  Solving for rho, Initial residual = 0, Final residual = 0, No Iterations 0
time step continuity errors : sum local = 1.50497e-16, global = 3.60206e-17, cumulative = 4.07477e-15
smoothSolver:  Solving for Bx, Initial residual = 0.0283698, Final residual = 7.34703e-16, No Iterations 4
smoothSolver:  Solving for By, Initial residual = 8.2401e-05, Final residual = 5.19433e-17, No Iterations 3
smoothSolver:  Solving for Bz, Initial residual = 0, Final residual = 0, No Iterations 0
DICPCG:  Solving for pB, Initial residual = 0.0370264, Final residual = 4.83923e-17, No Iterations 14
magnetic flux divergence error = 3.9968e-20
smoothSolver:  Solving for Bx, Initial residual = 5.05223e-17, Final residual = 5.05223e-17, No Iterations 0
smoothSolver:  Solving for By, Initial residual = 9.12764e-18, Final residual = 9.12764e-18, No Iterations 0
smoothSolver:  Solving for Bz, Initial residual = 0, Final residual = 0, No Iterations 0
DICPCG:  Solving for pB, Initial residual = 2.03337e-15, Final residual = 5.17763e-17, No Iterations 1
magnetic flux divergence error = 2.33147e-20
smoothSolver:  Solving for Bx, Initial residual = 1.4435e-17, Final residual = 1.4435e-17, No Iterations 0
smoothSolver:  Solving for By, Initial residual = 9.12764e-18, Final residual = 9.12764e-18, No Iterations 0
smoothSolver:  Solving for Bz, Initial residual = 0, Final residual = 0, No Iterations 0
DICPCG:  Solving for pB, Initial residual = 6.05856e-16, Final residual = 6.05856e-16, No Iterations 0
magnetic flux divergence error = 2.33147e-20
ExecutionTime = 0.35 s  ClockTime = 1 s

Courant Number mean: 0.0131858 max: 0.13557
deltaT = 5e-05
Time = 0.00114799

PIMPLE: iteration 1
diagonal:  Solving for rho, Initial residual = 0, Final residual = 0, No Iterations 0
smoothSolver:  Solving for Ux, Initial residual = 0.0109032, Final residual = 3.4068e-17, No Iterations 6
smoothSolver:  Solving for Uy, Initial residual = 0.00883562, Final residual = 2.61686e-17, No Iterations 6
smoothSolver:  Solving for Uz, Initial residual = 0, Final residual = 0, No Iterations 0
smoothSolver:  Solving for e, Initial residual = 0.0162431, Final residual = 3.37376e-17, No Iterations 6
DICPCG:  Solving for p, Initial residual = 0.00246342, Final residual = 4.65082e-17, No Iterations 3
diagonal:  Solving for rho, Initial residual = 0, Final residual = 0, No Iterations 0
time step continuity errors : sum local = 2.01074e-16, global = 2.44249e-17, cumulative = 4.09919e-15
DICPCG:  Solving for p, Initial residual = 0.000155843, Final residual = 8.17205e-18, No Iterations 3
diagonal:  Solving for rho, Initial residual = 0, Final residual = 0, No Iterations 0
time step continuity errors : sum local = 1.49017e-16, global = 4.39155e-17, cumulative = 4.14311e-15
DICPCG:  Solving for p, Initial residual = 1.33079e-05, Final residual = 4.07171e-19, No Iterations 3
diagonal:  Solving for rho, Initial residual = 0, Final residual = 0, No Iterations 0
time step continuity errors : sum local = 1.77883e-16, global = 3.77476e-17, cumulative = 4.18086e-15
smoothSolver:  Solving for Bx, Initial residual = 0.0275636, Final residual = 6.37299e-16, No Iterations 4
smoothSolver:  Solving for By, Initial residual = 8.16858e-05, Final residual = 5.24048e-17, No Iterations 3
smoothSolver:  Solving for Bz, Initial residual = 0, Final residual = 0, No Iterations 0
DICPCG:  Solving for pB, Initial residual = 0.0378172, Final residual = 1.61277e-16, No Iterations 14
magnetic flux divergence error = 3.88578e-20
smoothSolver:  Solving for Bx, Initial residual = 2.07402e-17, Final residual = 2.07402e-17, No Iterations 0
smoothSolver:  Solving for By, Initial residual = 9.12913e-18, Final residual = 9.12913e-18, No Iterations 0
smoothSolver:  Solving for Bz, Initial residual = 0, Final residual = 0, No Iterations 0
DICPCG:  Solving for pB, Initial residual = 1.71365e-15, Final residual = 1.82909e-16, No Iterations 1
magnetic flux divergence error = 2.33147e-20
smoothSolver:  Solving for Bx, Initial residual = 4.14805e-17, Final residual = 4.14805e-17, No Iterations 0
smoothSolver:  Solving for By, Initial residual = 9.12913e-18, Final residual = 9.12913e-18, No Iterations 0
smoothSolver:  Solving for Bz, Initial residual = 0, Final residual = 0, No Iterations 0
DICPCG:  Solving for pB, Initial residual = 9.03955e-16, Final residual = 9.03955e-16, No Iterations 0
magnetic flux divergence error = 2.33147e-20
ExecutionTime = 0.36 s  ClockTime = 1 s

Courant Number mean: 0.0137407 max: 0.132972
deltaT = 5e-05
Time = 0.00119799

PIMPLE: iteration 1
diagonal:  Solving for rho, Initial residual = 0, Final residual = 0, No Iterations 0
smoothSolver:  Solving for Ux, Initial residual = 0.0104755, Final residual = 2.59493e-17, No Iterations 6
smoothSolver:  Solving for Uy, Initial residual = 0.00899485, Final residual = 3.62605e-17, No Iterations 6
smoothSolver:  Solving for Uz, Initial residual = 0, Final residual = 0, No Iterations 0
smoothSolver:  Solving for e, Initial residual = 0.0157524, Final residual = 3.93961e-17, No Iterations 6
DICPCG:  Solving for p, Initial residual = 0.00241005, Final residual = 8.80023e-17, No Iterations 3
diagonal:  Solving for rho, Initial residual = 0, Final residual = 0, No Iterations 0
time step continuity errors : sum local = 2.60039e-16, global = 2.07242e-17, cumulative = 4.20158e-15
DICPCG:  Solving for p, Initial residual = 0.000134331, Final residual = 9.00754e-18, No Iterations 3
[...]
smoothSolver:  Solving for Uz, Initial residual = 0, Final residual = 0, No Iterations 0
smoothSolver:  Solving for e, Initial residual = 0.00290531, Final residual = 2.55112e-17, No Iterations 6
DICPCG:  Solving for p, Initial residual = 0.00286403, Final residual = 5.08861e-17, No Iterations 3
diagonal:  Solving for rho, Initial residual = 0, Final residual = 0, No Iterations 0
time step continuity errors : sum local = 1.58847e-16, global = 3.21716e-17, cumulative = 9.20133e-15
DICPCG:  Solving for p, Initial residual = 2.82534e-05, Final residual = 1.42834e-18, No Iterations 3
diagonal:  Solving for rho, Initial residual = 0, Final residual = 0, No Iterations 0
time step continuity errors : sum local = 1.97554e-16, global = -1.35724e-17, cumulative = 9.18775e-15
DICPCG:  Solving for p, Initial residual = 2.17015e-06, Final residual = 4.00336e-20, No Iterations 3
diagonal:  Solving for rho, Initial residual = 0, Final residual = 0, No Iterations 0
time step continuity errors : sum local = 1.54826e-16, global = -1.70912e-17, cumulative = 9.17066e-15
smoothSolver:  Solving for Bx, Initial residual = 0.00236446, Final residual = 3.23585e-16, No Iterations 3
smoothSolver:  Solving for By, Initial residual = 3.23006e-05, Final residual = 3.99905e-17, No Iterations 3
smoothSolver:  Solving for Bz, Initial residual = 0, Final residual = 0, No Iterations 0
DICPCG:  Solving for pB, Initial residual = 0.007624, Final residual = 6.77256e-16, No Iterations 31
magnetic flux divergence error = 1.3145e-18
smoothSolver:  Solving for Bx, Initial residual = 5.90632e-16, Final residual = 5.90632e-16, No Iterations 0
smoothSolver:  Solving for By, Initial residual = 1.10241e-17, Final residual = 1.10241e-17, No Iterations 0
smoothSolver:  Solving for Bz, Initial residual = 0, Final residual = 0, No Iterations 0
DICPCG:  Solving for pB, Initial residual = 4.02877e-14, Final residual = 4.70054e-16, No Iterations 17
magnetic flux divergence error = 1.30562e-18
smoothSolver:  Solving for Bx, Initial residual = 6.17294e-16, Final residual = 6.17294e-16, No Iterations 0
smoothSolver:  Solving for By, Initial residual = 1.10241e-17, Final residual = 1.10241e-17, No Iterations 0
smoothSolver:  Solving for Bz, Initial residual = 0, Final residual = 0, No Iterations 0
DICPCG:  Solving for pB, Initial residual = 3.51888e-14, Final residual = 8.11519e-16, No Iterations 17
magnetic flux divergence error = 1.25233e-18
ExecutionTime = 1.32 s  ClockTime = 2 s

Courant Number mean: 0.0880785 max: 0.133628
deltaT = 5e-05
Time = 0.00974799

PIMPLE: iteration 1
diagonal:  Solving for rho, Initial residual = 0, Final residual = 0, No Iterations 0
smoothSolver:  Solving for Ux, Initial residual = 0.0026863, Final residual = 3.1743e-16, No Iterations 5
smoothSolver:  Solving for Uy, Initial residual = 0.00218321, Final residual = 1.90832e-17, No Iterations 6
smoothSolver:  Solving for Uz, Initial residual = 0, Final residual = 0, No Iterations 0
smoothSolver:  Solving for e, Initial residual = 0.00291592, Final residual = 2.35625e-17, No Iterations 6
DICPCG:  Solving for p, Initial residual = 0.00288021, Final residual = 5.25187e-17, No Iterations 3
diagonal:  Solving for rho, Initial residual = 0, Final residual = 0, No Iterations 0
time step continuity errors : sum local = 1.95616e-16, global = 2.51434e-18, cumulative = 9.17318e-15
DICPCG:  Solving for p, Initial residual = 2.93024e-05, Final residual = 1.42496e-18, No Iterations 3
diagonal:  Solving for rho, Initial residual = 0, Final residual = 0, No Iterations 0
time step continuity errors : sum local = 2.07685e-16, global = 3.52008e-18, cumulative = 9.1767e-15
DICPCG:  Solving for p, Initial residual = 2.1563e-06, Final residual = 3.79855e-20, No Iterations 3
diagonal:  Solving for rho, Initial residual = 0, Final residual = 0, No Iterations 0
time step continuity errors : sum local = 1.67455e-16, global = 1.1566e-17, cumulative = 9.18826e-15
smoothSolver:  Solving for Bx, Initial residual = 0.00235648, Final residual = 3.22696e-16, No Iterations 3
smoothSolver:  Solving for By, Initial residual = 3.22014e-05, Final residual = 4.22139e-17, No Iterations 3
smoothSolver:  Solving for Bz, Initial residual = 0, Final residual = 0, No Iterations 0
DICPCG:  Solving for pB, Initial residual = 0.00755151, Final residual = 9.30715e-16, No Iterations 13
magnetic flux divergence error = 9.67004e-19
smoothSolver:  Solving for Bx, Initial residual = 6.14311e-16, Final residual = 6.14311e-16, No Iterations 0
smoothSolver:  Solving for By, Initial residual = 1.27655e-17, Final residual = 1.27655e-17, No Iterations 0
smoothSolver:  Solving for Bz, Initial residual = 0, Final residual = 0, No Iterations 0
DICPCG:  Solving for pB, Initial residual = 2.20941e-14, Final residual = 2.10476e-16, No Iterations 19
magnetic flux divergence error = 1.14131e-18
smoothSolver:  Solving for Bx, Initial residual = 5.55762e-16, Final residual = 5.55762e-16, No Iterations 0
smoothSolver:  Solving for By, Initial residual = 1.27655e-17, Final residual = 1.27655e-17, No Iterations 0
smoothSolver:  Solving for Bz, Initial residual = 0, Final residual = 0, No Iterations 0
DICPCG:  Solving for pB, Initial residual = 3.34005e-14, Final residual = 8.92095e-16, No Iterations 17
magnetic flux divergence error = 1.13687e-18
ExecutionTime = 1.32 s  ClockTime = 2 s

Courant Number mean: 0.0881594 max: 0.133689
deltaT = 5e-05
Time = 0.00979799

PIMPLE: iteration 1
diagonal:  Solving for rho, Initial residual = 0, Final residual = 0, No Iterations 0
smoothSolver:  Solving for Ux, Initial residual = 0.00269822, Final residual = 3.19664e-16, No Iterations 5
smoothSolver:  Solving for Uy, Initial residual = 0.00217913, Final residual = 2.00201e-17, No Iterations 6
smoothSolver:  Solving for Uz, Initial residual = 0, Final residual = 0, No Iterations 0
smoothSolver:  Solving for e, Initial residual = 0.00292415, Final residual = 2.05013e-17, No Iterations 6
DICPCG:  Solving for p, Initial residual = 0.00289118, Final residual = 5.29747e-17, No Iterations 3
diagonal:  Solving for rho, Initial residual = 0, Final residual = 0, No Iterations 0
time step continuity errors : sum local = 1.87137e-16, global = -1.00611e-18, cumulative = 9.18726e-15
DICPCG:  Solving for p, Initial residual = 2.98929e-05, Final residual = 1.42534e-18, No Iterations 3
diagonal:  Solving for rho, Initial residual = 0, Final residual = 0, No Iterations 0
time step continuity errors : sum local = 1.75566e-16, global = -2.51528e-18, cumulative = 9.18474e-15
DICPCG:  Solving for p, Initial residual = 2.15239e-06, Final residual = 3.4797e-20, No Iterations 3
diagonal:  Solving for rho, Initial residual = 0, Final residual = 0, No Iterations 0
time step continuity errors : sum local = 1.72045e-16, global = 1.811e-17, cumulative = 9.20285e-15
smoothSolver:  Solving for Bx, Initial residual = 0.00234555, Final residual = 3.01149e-16, No Iterations 3
smoothSolver:  Solving for By, Initial residual = 3.2103e-05, Final residual = 4.54506e-17, No Iterations 3
smoothSolver:  Solving for Bz, Initial residual = 0, Final residual = 0, No Iterations 0
DICPCG:  Solving for pB, Initial residual = 0.00752566, Final residual = 3.27946e-16, No Iterations 13
magnetic flux divergence error = 9.51461e-19
smoothSolver:  Solving for Bx, Initial residual = 4.72659e-16, Final residual = 4.72659e-16, No Iterations 0
smoothSolver:  Solving for By, Initial residual = 1.21861e-17, Final residual = 1.21861e-17, No Iterations 0
smoothSolver:  Solving for Bz, Initial residual = 0, Final residual = 0, No Iterations 0
DICPCG:  Solving for pB, Initial residual = 2.90334e-14, Final residual = 9.52783e-16, No Iterations 17
magnetic flux divergence error = 1.22902e-18
smoothSolver:  Solving for Bx, Initial residual = 4.95551e-16, Final residual = 4.95551e-16, No Iterations 0
smoothSolver:  Solving for By, Initial residual = 1.21861e-17, Final residual = 1.21861e-17, No Iterations 0
smoothSolver:  Solving for Bz, Initial residual = 0, Final residual = 0, No Iterations 0
DICPCG:  Solving for pB, Initial residual = 3.5693e-14, Final residual = 2.43048e-16, No Iterations 19
magnetic flux divergence error = 1.06581e-18
ExecutionTime = 1.33 s  ClockTime = 2 s

Courant Number mean: 0.0882403 max: 0.133622
deltaT = 5e-05
Time = 0.00984799

PIMPLE: iteration 1
diagonal:  Solving for rho, Initial residual = 0, Final residual = 0, No Iterations 0
smoothSolver:  Solving for Ux, Initial residual = 0.00270881, Final residual = 3.23051e-16, No Iterations 5
smoothSolver:  Solving for Uy, Initial residual = 0.00216747, Final residual = 1.78858e-17, No Iterations 6
smoothSolver:  Solving for Uz, Initial residual = 0, Final residual = 0, No Iterations 0
smoothSolver:  Solving for e, Initial residual = 0.00293042, Final residual = 2.32654e-17, No Iterations 6
DICPCG:  Solving for p, Initial residual = 0.00290618, Final residual = 5.18061e-17, No Iterations 3
diagonal:  Solving for rho, Initial residual = 0, Final residual = 0, No Iterations 0
time step continuity errors : sum local = 1.70096e-16, global = -5.33437e-17, cumulative = 9.14951e-15
DICPCG:  Solving for p, Initial residual = 3.03182e-05, Final residual = 1.41952e-18, No Iterations 3
diagonal:  Solving for rho, Initial residual = 0, Final residual = 0, No Iterations 0
time step continuity errors : sum local = 1.96265e-16, global = 6.03891e-18, cumulative = 9.15555e-15
DICPCG:  Solving for p, Initial residual = 2.16919e-06, Final residual = 3.42263e-20, No Iterations 3
diagonal:  Solving for rho, Initial residual = 0, Final residual = 0, No Iterations 0
time step continuity errors : sum local = 1.65567e-16, global = -2.51621e-18, cumulative = 9.15303e-15
smoothSolver:  Solving for Bx, Initial residual = 0.00233862, Final residual = 3.09829e-16, No Iterations 3
smoothSolver:  Solving for By, Initial residual = 3.20054e-05, Final residual = 3.78345e-17, No Iterations 3
smoothSolver:  Solving for Bz, Initial residual = 0, Final residual = 0, No Iterations 0
DICPCG:  Solving for pB, Initial residual = 0.00761154, Final residual = 6.32371e-16, No Iterations 30
magnetic flux divergence error = 1.44773e-18
smoothSolver:  Solving for Bx, Initial residual = 6.06649e-16, Final residual = 6.06649e-16, No Iterations 0
smoothSolver:  Solving for By, Initial residual = 1.39278e-17, Final residual = 1.39278e-17, No Iterations 0
smoothSolver:  Solving for Bz, Initial residual = 0, Final residual = 0, No Iterations 0
DICPCG:  Solving for pB, Initial residual = 4.31705e-14, Final residual = 0.000156075, No Iterations 1000
magnetic flux divergence error = 5.0461e-09
smoothSolver:  Solving for Bx, Initial residual = 9.78359e-07, Final residual = 1.1541e-16, No Iterations 3
smoothSolver:  Solving for By, Initial residual = 8.24891e-12, Final residual = 4.33532e-16, No Iterations 1
smoothSolver:  Solving for Bz, Initial residual = 0, Final residual = 0, No Iterations 0
DICPCG:  Solving for pB, Initial residual = 0.00015671, Final residual = 1.57244e-16, No Iterations 56
magnetic flux divergence error = 1.43542e-16
ExecutionTime = 1.34 s  ClockTime = 2 s

Courant Number mean: 0.0883211 max: 0.133401
deltaT = 5e-05
Time = 0.00989799

PIMPLE: iteration 1
diagonal:  Solving for rho, Initial residual = 0, Final residual = 0, No Iterations 0
smoothSolver:  Solving for Ux, Initial residual = 0.00271715, Final residual = 3.22136e-16, No Iterations 5
smoothSolver:  Solving for Uy, Initial residual = 0.00215167, Final residual = 1.99557e-17, No Iterations 6
smoothSolver:  Solving for Uz, Initial residual = 0, Final residual = 0, No Iterations 0
smoothSolver:  Solving for e, Initial residual = 0.0029304, Final residual = 2.44189e-17, No Iterations 6
DICPCG:  Solving for p, Initial residual = 0.00291785, Final residual = 5.05118e-17, No Iterations 3
diagonal:  Solving for rho, Initial residual = 0, Final residual = 0, No Iterations 0
time step continuity errors : sum local = 1.90296e-16, global = 1.51029e-17, cumulative = 9.16813e-15
DICPCG:  Solving for p, Initial residual = 3.03067e-05, Final residual = 1.40848e-18, No Iterations 3
diagonal:  Solving for rho, Initial residual = 0, Final residual = 0, No Iterations 0
time step continuity errors : sum local = 1.71166e-16, global = 2.81921e-17, cumulative = 9.19633e-15
DICPCG:  Solving for p, Initial residual = 2.17115e-06, Final residual = 3.44167e-20, No Iterations 3
diagonal:  Solving for rho, Initial residual = 0, Final residual = 0, No Iterations 0
time step continuity errors : sum local = 1.56063e-16, global = -2.91989e-17, cumulative = 9.16713e-15
smoothSolver:  Solving for Bx, Initial residual = 0.00234424, Final residual = 3.01167e-16, No Iterations 3
smoothSolver:  Solving for By, Initial residual = 3.19089e-05, Final residual = 4.15526e-17, No Iterations 3
smoothSolver:  Solving for Bz, Initial residual = 0, Final residual = 0, No Iterations 0
DICPCG:  Solving for pB, Initial residual = 0.00765665, Final residual = 4.6956e-12, No Iterations 1000
magnetic flux divergence error = 2.74202e-16
smoothSolver:  Solving for Bx, Initial residual = 8.68781e-14, Final residual = 1.10777e-16, No Iterations 1
smoothSolver:  Solving for By, Initial residual = 1.04465e-17, Final residual = 1.04465e-17, No Iterations 0
smoothSolver:  Solving for Bz, Initial residual = 0, Final residual = 0, No Iterations 0
DICPCG:  Solving for pB, Initial residual = 8.5849e-12, Final residual = 2.61223e-16, No Iterations 35
magnetic flux divergence error = 2.75047e-17
smoothSolver:  Solving for Bx, Initial residual = 8.1001e-14, Final residual = 1.31283e-16, No Iterations 1
smoothSolver:  Solving for By, Initial residual = 1.04465e-17, Final residual = 1.04465e-17, No Iterations 0
smoothSolver:  Solving for Bz, Initial residual = 0, Final residual = 0, No Iterations 0
DICPCG:  Solving for pB, Initial residual = 8.98084e-13, Final residual = 3.86786e-16, No Iterations 34
magnetic flux divergence error = 3.11751e-18
ExecutionTime = 1.34 s  ClockTime = 2 s

Courant Number mean: 0.0884017 max: 0.13318
deltaT = 5e-05
Time = 0.00994799

PIMPLE: iteration 1
diagonal:  Solving for rho, Initial residual = 0, Final residual = 0, No Iterations 0
smoothSolver:  Solving for Ux, Initial residual = 0.00272345, Final residual = 3.19067e-16, No Iterations 5
smoothSolver:  Solving for Uy, Initial residual = 0.0021481, Final residual = 1.95423e-17, No Iterations 6
smoothSolver:  Solving for Uz, Initial residual = 0, Final residual = 0, No Iterations 0
smoothSolver:  Solving for e, Initial residual = 0.00293541, Final residual = 2.22364e-17, No Iterations 6
DICPCG:  Solving for p, Initial residual = 0.00293288, Final residual = 4.872e-17, No Iterations 3
diagonal:  Solving for rho, Initial residual = 0, Final residual = 0, No Iterations 0
time step continuity errors : sum local = 1.7677e-16, global = 2.16555e-17, cumulative = 9.18878e-15
DICPCG:  Solving for p, Initial residual = 3.03137e-05, Final residual = 1.44893e-18, No Iterations 3
diagonal:  Solving for rho, Initial residual = 0, Final residual = 0, No Iterations 0
time step continuity errors : sum local = 1.67704e-16, global = -3.17279e-17, cumulative = 9.15706e-15
DICPCG:  Solving for p, Initial residual = 2.17876e-06, Final residual = 3.60528e-20, No Iterations 3
diagonal:  Solving for rho, Initial residual = 0, Final residual = 0, No Iterations 0
time step continuity errors : sum local = 1.61157e-16, global = -1.41013e-17, cumulative = 9.14295e-15
smoothSolver:  Solving for Bx, Initial residual = 0.00234768, Final residual = 2.97355e-16, No Iterations 3
smoothSolver:  Solving for By, Initial residual = 3.18132e-05, Final residual = 4.24318e-17, No Iterations 3
smoothSolver:  Solving for Bz, Initial residual = 0, Final residual = 0, No Iterations 0
DICPCG:  Solving for pB, Initial residual = 0.00765772, Final residual = 5.93824e-16, No Iterations 55
magnetic flux divergence error = 1.97398e-18
smoothSolver:  Solving for Bx, Initial residual = 1.28671e-15, Final residual = 1.06077e-16, No Iterations 1
smoothSolver:  Solving for By, Initial residual = 1.04472e-17, Final residual = 1.04472e-17, No Iterations 0
smoothSolver:  Solving for Bz, Initial residual = 0, Final residual = 0, No Iterations 0
DICPCG:  Solving for pB, Initial residual = 5.88579e-14, Final residual = 9.29928e-16, No Iterations 20
magnetic flux divergence error = 1.15574e-18
smoothSolver:  Solving for Bx, Initial residual = 5.02682e-16, Final residual = 5.02682e-16, No Iterations 0
smoothSolver:  Solving for By, Initial residual = 1.04472e-17, Final residual = 1.04472e-17, No Iterations 0
smoothSolver:  Solving for Bz, Initial residual = 0, Final residual = 0, No Iterations 0
DICPCG:  Solving for pB, Initial residual = 3.26906e-14, Final residual = 4.59636e-16, No Iterations 38
magnetic flux divergence error = 1.85518e-18
ExecutionTime = 1.35 s  ClockTime = 2 s

Courant Number mean: 0.0884818 max: 0.133495
deltaT = 5e-05
Time = 0.00999799

PIMPLE: iteration 1
diagonal:  Solving for rho, Initial residual = 0, Final residual = 0, No Iterations 0
smoothSolver:  Solving for Ux, Initial residual = 0.00272685, Final residual = 3.16015e-16, No Iterations 5
smoothSolver:  Solving for Uy, Initial residual = 0.00215896, Final residual = 2.05167e-17, No Iterations 6
smoothSolver:  Solving for Uz, Initial residual = 0, Final residual = 0, No Iterations 0
smoothSolver:  Solving for e, Initial residual = 0.00294789, Final residual = 2.27978e-17, No Iterations 6
DICPCG:  Solving for p, Initial residual = 0.00294548, Final residual = 4.89677e-17, No Iterations 3
diagonal:  Solving for rho, Initial residual = 0, Final residual = 0, No Iterations 0
time step continuity errors : sum local = 1.9598e-16, global = -2.26712e-17, cumulative = 9.12028e-15
DICPCG:  Solving for p, Initial residual = 3.00795e-05, Final residual = 1.48027e-18, No Iterations 3
diagonal:  Solving for rho, Initial residual = 0, Final residual = 0, No Iterations 0
time step continuity errors : sum local = 1.60714e-16, global = 8.56468e-18, cumulative = 9.12885e-15
DICPCG:  Solving for p, Initial residual = 2.24396e-06, Final residual = 4.17524e-20, No Iterations 3
diagonal:  Solving for rho, Initial residual = 0, Final residual = 0, No Iterations 0
time step continuity errors : sum local = 1.93965e-16, global = 3.77853e-17, cumulative = 9.16663e-15
smoothSolver:  Solving for Bx, Initial residual = 0.00234911, Final residual = 2.89315e-16, No Iterations 3
smoothSolver:  Solving for By, Initial residual = 3.17181e-05, Final residual = 3.92816e-17, No Iterations 3
smoothSolver:  Solving for Bz, Initial residual = 0, Final residual = 0, No Iterations 0
DICPCG:  Solving for pB, Initial residual = 0.00762026, Final residual = 3.48848e-16, No Iterations 13
magnetic flux divergence error = 1.02029e-18
smoothSolver:  Solving for Bx, Initial residual = 5.98054e-16, Final residual = 5.98054e-16, No Iterations 0
smoothSolver:  Solving for By, Initial residual = 1.10283e-17, Final residual = 1.10283e-17, No Iterations 0
smoothSolver:  Solving for Bz, Initial residual = 0, Final residual = 0, No Iterations 0
DICPCG:  Solving for pB, Initial residual = 2.90997e-14, Final residual = 9.07158e-16, No Iterations 16
magnetic flux divergence error = 1.08247e-18
smoothSolver:  Solving for Bx, Initial residual = 5.94067e-16, Final residual = 5.94067e-16, No Iterations 0
smoothSolver:  Solving for By, Initial residual = 1.10283e-17, Final residual = 1.10283e-17, No Iterations 0
smoothSolver:  Solving for Bz, Initial residual = 0, Final residual = 0, No Iterations 0
DICPCG:  Solving for pB, Initial residual = 3.12045e-14, Final residual = 7.65128e-16, No Iterations 19
magnetic flux divergence error = 1.28453e-18
ExecutionTime = 1.36 s  ClockTime = 2 s

    functionObjects::components components(U) writing field: Ux
    functionObjects::components components(U) writing field: Uy
    functionObjects::components components(U) writing field: Uz
End

