/*---------------------------------------------------------------------------*\
| =========                 |                                                 |
| \\      /  F ield         | OpenFOAM: The Open Source CFD Toolbox           |
|  \\    /   O peration     | Version:  2012                                  |
|   \\  /    A nd           | Website:  www.openfoam.com                      |
|    \\/     M anipulation  |                                                 |
\*---------------------------------------------------------------------------*/
Build  : _269d0ffd5c-20210619 OPENFOAM=2012 patch=210618
Arch   : "LSB;label=32;scalar=64"
Exec   : sonicFoam
Date   : Apr 02 2022
Time   : 21:35:55
Host   : gabrielmarconcini-Lenovo-G50-80
PID    : 32155
I/O    : uncollated
Case   : /home/gabrielmarconcini/Documentos/TCC/PTCC/ShockTube/sim/HydroShockTube/sonicFoam/shockTube2_100
nProcs : 1
trapFpe: Floating point exception trapping enabled (FOAM_SIGFPE).
fileModificationChecking : Monitoring run-time modified files using timeStampMaster (fileModificationSkew 5, maxFileModificationPolls 20)
allowSystemOperations : Allowing user-supplied system call operations

// * * * * * * * * * * * * * * * * * * * * * * * * * * * * * * * * * * * * * //
Create time

Create mesh for time = 0


PIMPLE: no residual control data found. Calculations will employ 2 corrector loops

Reading thermophysical properties

Selecting thermodynamics package 
{
    type            hePsiThermo;
    mixture         pureMixture;
    transport       const;
    thermo          hConst;
    equationOfState perfectGas;
    specie          specie;
    energy          sensibleInternalEnergy;
}

Reading field U

Reading/calculating face flux field phi

Creating turbulence model

Selecting turbulence model type laminar
Selecting laminar stress model Stokes
Creating field kinetic energy K

No MRF models present

No finite volume options present

Starting time loop

Time = 1e-05

Courant Number mean: 0 max: 0
diagonal:  Solving for rho, Initial residual = 0, Final residual = 0, No Iterations 0
PIMPLE: iteration 1
smoothSolver:  Solving for Ux, Initial residual = 1, Final residual = 0, No Iterations 1
smoothSolver:  Solving for e, Initial residual = 4.99382e-17, Final residual = 4.99382e-17, No Iterations 0
smoothSolver:  Solving for p, Initial residual = 1.78207e-05, Final residual = 1.74289e-17, No Iterations 2
diagonal:  Solving for rho, Initial residual = 0, Final residual = 0, No Iterations 0
time step continuity errors : sum local = 9.05177e-17, global = -4.60008e-17, cumulative = -4.60008e-17
PIMPLE: iteration 2
smoothSolver:  Solving for Ux, Initial residual = 0.000459566, Final residual = 5.44517e-18, No Iterations 1
smoothSolver:  Solving for e, Initial residual = 0.000130193, Final residual = 2.93959e-17, No Iterations 1
smoothSolver:  Solving for p, Initial residual = 1.63696e-05, Final residual = 1.58997e-17, No Iterations 2
diagonal:  Solving for rho, Initial residual = 0, Final residual = 0, No Iterations 0
time step continuity errors : sum local = 8.82919e-17, global = -4.52589e-17, cumulative = -9.12597e-17
ExecutionTime = 0.05 s  ClockTime = 0 s

Time = 2e-05

Courant Number mean: 4.02746e-05 max: 0.00356997
diagonal:  Solving for rho, Initial residual = 0, Final residual = 0, No Iterations 0
PIMPLE: iteration 1
smoothSolver:  Solving for Ux, Initial residual = 0.127384, Final residual = 9.39559e-18, No Iterations 1
smoothSolver:  Solving for e, Initial residual = 8.09679e-05, Final residual = 2.28877e-17, No Iterations 2
smoothSolver:  Solving for p, Initial residual = 7.6475e-05, Final residual = 3.35861e-16, No Iterations 2
diagonal:  Solving for rho, Initial residual = 0, Final residual = 0, No Iterations 0
time step continuity errors : sum local = 6.51184e-16, global = 3.44017e-16, cumulative = 2.52757e-16
PIMPLE: iteration 2
smoothSolver:  Solving for Ux, Initial residual = 0.00149742, Final residual = 1.05234e-17, No Iterations 1
smoothSolver:  Solving for e, Initial residual = 0.000381772, Final residual = 1.37599e-16, No Iterations 2
smoothSolver:  Solving for p, Initial residual = 4.58251e-05, Final residual = 2.49868e-16, No Iterations 2
diagonal:  Solving for rho, Initial residual = 0, Final residual = 0, No Iterations 0
time step continuity errors : sum local = 4.96611e-16, global = 3.43275e-16, cumulative = 5.96032e-16
ExecutionTime = 0.05 s  ClockTime = 0 s

Time = 3e-05

Courant Number mean: 0.000172526 max: 0.0143432
diagonal:  Solving for rho, Initial residual = 0, Final residual = 0, No Iterations 0
PIMPLE: iteration 1
smoothSolver:  Solving for Ux, Initial residual = 0.0677829, Final residual = 1.70509e-17, No Iterations 1
smoothSolver:  Solving for e, Initial residual = 0.000372465, Final residual = 3.7105e-16, No Iterations 2
smoothSolver:  Solving for p, Initial residual = 0.000168964, Final residual = 9.15052e-18, No Iterations 3
diagonal:  Solving for rho, Initial residual = 0, Final residual = 0, No Iterations 0
time step continuity errors : sum local = 6.1829e-17, global = -2.57209e-17, cumulative = 5.70311e-16
PIMPLE: iteration 2
smoothSolver:  Solving for Ux, Initial residual = 0.00151338, Final residual = 7.41392e-18, No Iterations 1
smoothSolver:  Solving for e, Initial residual = 0.000378716, Final residual = 2.76479e-17, No Iterations 3
smoothSolver:  Solving for p, Initial residual = 4.32198e-05, Final residual = 6.02473e-16, No Iterations 2
diagonal:  Solving for rho, Initial residual = 0, Final residual = 0, No Iterations 0
time step continuity errors : sum local = 1.12504e-15, global = 9.40543e-16, cumulative = 1.51085e-15
ExecutionTime = 0.05 s  ClockTime = 0 s

Time = 4e-05

Courant Number mean: 0.000296787 max: 0.0243066
diagonal:  Solving for rho, Initial residual = 0, Final residual = 0, No Iterations 0
PIMPLE: iteration 1
smoothSolver:  Solving for Ux, Initial residual = 0.0458475, Final residual = 1.24619e-17, No Iterations 1
smoothSolver:  Solving for e, Initial residual = 0.00068061, Final residual = 2.95041e-17, No Iterations 3
smoothSolver:  Solving for p, Initial residual = 0.000245737, Final residual = 9.01436e-18, No Iterations 3
diagonal:  Solving for rho, Initial residual = 0, Final residual = 0, No Iterations 0
time step continuity errors : sum local = 7.39475e-17, global = -5.06998e-17, cumulative = 1.46015e-15
PIMPLE: iteration 2
smoothSolver:  Solving for Ux, Initial residual = 0.0011256, Final residual = 9.96801e-18, No Iterations 1
smoothSolver:  Solving for e, Initial residual = 0.000269812, Final residual = 4.5118e-17, No Iterations 3
smoothSolver:  Solving for p, Initial residual = 2.93525e-05, Final residual = 5.2664e-16, No Iterations 2
diagonal:  Solving for rho, Initial residual = 0, Final residual = 0, No Iterations 0
time step continuity errors : sum local = 9.99405e-16, global = 8.19359e-16, cumulative = 2.27951e-15
ExecutionTime = 0.05 s  ClockTime = 0 s

Time = 5e-05

Courant Number mean: 0.000377575 max: 0.030652
diagonal:  Solving for rho, Initial residual = 0, Final residual = 0, No Iterations 0
PIMPLE: iteration 1
smoothSolver:  Solving for Ux, Initial residual = 0.0344852, Final residual = 1.95963e-17, No Iterations 1
smoothSolver:  Solving for e, Initial residual = 0.000884965, Final residual = 7.11604e-17, No Iterations 3
smoothSolver:  Solving for p, Initial residual = 0.000299548, Final residual = 6.3201e-18, No Iterations 3
diagonal:  Solving for rho, Initial residual = 0, Final residual = 0, No Iterations 0
time step continuity errors : sum local = 5.83666e-17, global = 9.89265e-19, cumulative = 2.2805e-15
PIMPLE: iteration 2
smoothSolver:  Solving for Ux, Initial residual = 0.00089444, Final residual = 7.55877e-18, No Iterations 1
smoothSolver:  Solving for e, Initial residual = 0.000174038, Final residual = 2.11478e-16, No Iterations 3
smoothSolver:  Solving for p, Initial residual = 1.80163e-05, Final residual = 2.54687e-16, No Iterations 2
diagonal:  Solving for rho, Initial residual = 0, Final residual = 0, No Iterations 0
time step continuity errors : sum local = 5.06998e-16, global = 3.75921e-16, cumulative = 2.65642e-15
ExecutionTime = 0.05 s  ClockTime = 0 s

Time = 6e-05

Courant Number mean: 0.000436844 max: 0.0346632
diagonal:  Solving for rho, Initial residual = 0, Final residual = 0, No Iterations 0
PIMPLE: iteration 1
smoothSolver:  Solving for Ux, Initial residual = 0.0276635, Final residual = 8.86063e-18, No Iterations 1
smoothSolver:  Solving for e, Initial residual = 0.00100322, Final residual = 8.12198e-16, No Iterations 3
smoothSolver:  Solving for p, Initial residual = 0.000336585, Final residual = 8.29455e-18, No Iterations 3
diagonal:  Solving for rho, Initial residual = 0, Final residual = 0, No Iterations 0
time step continuity errors : sum local = 6.13344e-17, global = -1.92907e-17, cumulative = 2.63713e-15
PIMPLE: iteration 2
smoothSolver:  Solving for Ux, Initial residual = 0.000659526, Final residual = 1.828e-17, No Iterations 1
smoothSolver:  Solving for e, Initial residual = 0.000108917, Final residual = 4.49744e-16, No Iterations 3
smoothSolver:  Solving for p, Initial residual = 1.03978e-05, Final residual = 1.22439e-16, No Iterations 2
diagonal:  Solving for rho, Initial residual = 0, Final residual = 0, No Iterations 0
time step continuity errors : sum local = 2.63144e-16, global = 1.60261e-16, cumulative = 2.79739e-15
ExecutionTime = 0.06 s  ClockTime = 0 s

Time = 7e-05

Courant Number mean: 0.000472632 max: 0.0366273
diagonal:  Solving for rho, Initial residual = 0, Final residual = 0, No Iterations 0
PIMPLE: iteration 1
smoothSolver:  Solving for Ux, Initial residual = 0.023161, Final residual = 8.68923e-18, No Iterations 1
smoothSolver:  Solving for e, Initial residual = 0.00107669, Final residual = 3.00748e-17, No Iterations 4
smoothSolver:  Solving for p, Initial residual = 0.000363118, Final residual = 8.56425e-18, No Iterations 3
diagonal:  Solving for rho, Initial residual = 0, Final residual = 0, No Iterations 0
time step continuity errors : sum local = 7.2711e-17, global = -4.00652e-17, cumulative = 2.75733e-15
PIMPLE: iteration 2
smoothSolver:  Solving for Ux, Initial residual = 0.000504257, Final residual = 7.24205e-18, No Iterations 1
smoothSolver:  Solving for e, Initial residual = 6.72148e-05, Final residual = 3.02579e-17, No Iterations 2
smoothSolver:  Solving for p, Initial residual = 4.88203e-06, Final residual = 2.16583e-16, No Iterations 2
diagonal:  Solving for rho, Initial residual = 0, Final residual = 0, No Iterations 0
time step continuity errors : sum local = 4.34535e-16, global = 3.43028e-16, cumulative = 3.10036e-15
ExecutionTime = 0.06 s  ClockTime = 0 s

Time = 8e-05

Courant Number mean: 0.000495087 max: 0.0373015
diagonal:  Solving for rho, Initial residual = 0, Final residual = 0, No Iterations 0
PIMPLE: iteration 1
smoothSolver:  Solving for Ux, Initial residual = 0.0200249, Final residual = 1.57666e-17, No Iterations 1
smoothSolver:  Solving for e, Initial residual = 0.00112233, Final residual = 3.00322e-17, No Iterations 2
smoothSolver:  Solving for p, Initial residual = 0.000376878, Final residual = 9.55834e-18, No Iterations 3
diagonal:  Solving for rho, Initial residual = 0, Final residual = 0, No Iterations 0
time step continuity errors : sum local = 6.38076e-17, global = -3.01726e-17, cumulative = 3.07018e-15
PIMPLE: iteration 2
smoothSolver:  Solving for Ux, Initial residual = 0.000388172, Final residual = 1.2095e-17, No Iterations 1
smoothSolver:  Solving for e, Initial residual = 3.73305e-05, Final residual = 2.71048e-17, No Iterations 2
smoothSolver:  Solving for p, Initial residual = 3.8665e-06, Final residual = 2.62201e-16, No Iterations 2
diagonal:  Solving for rho, Initial residual = 0, Final residual = 0, No Iterations 0
time step continuity errors : sum local = 5.11203e-16, global = 3.86555e-16, cumulative = 3.45674e-15
ExecutionTime = 0.06 s  ClockTime = 0 s

Time = 9e-05

Courant Number mean: 0.000508105 max: 0.0371115
diagonal:  Solving for rho, Initial residual = 0, Final residual = 0, No Iterations 0
PIMPLE: iteration 1
smoothSolver:  Solving for Ux, Initial residual = 0.0177354, Final residual = 1.0547e-17, No Iterations 1
smoothSolver:  Solving for e, Initial residual = 0.00110897, Final residual = 3.70321e-17, No Iterations 2
smoothSolver:  Solving for p, Initial residual = 0.000384015, Final residual = 9.72362e-18, No Iterations 3
diagonal:  Solving for rho, Initial residual = 0, Final residual = 0, No Iterations 0
time step continuity errors : sum local = 5.58935e-17, global = -1.58282e-17, cumulative = 3.44091e-15
PIMPLE: iteration 2
smoothSolver:  Solving for Ux, Initial residual = 0.000307555, Final residual = 4.21018e-18, No Iterations 1
smoothSolver:  Solving for e, Initial residual = 3.10463e-05, Final residual = 3.20456e-17, No Iterations 2
smoothSolver:  Solving for p, Initial residual = 7.34587e-06, Final residual = 9.37286e-16, No Iterations 2
diagonal:  Solving for rho, Initial residual = 0, Final residual = 0, No Iterations 0
time step continuity errors : sum local = 1.72379e-15, global = -4.24889e-16, cumulative = 3.01602e-15
ExecutionTime = 0.06 s  ClockTime = 0 s

Time = 0.0001

Courant Number mean: 0.000515685 max: 0.0364067
diagonal:  Solving for rho, Initial residual = 0, Final residual = 0, No Iterations 0
PIMPLE: iteration 1
smoothSolver:  Solving for Ux, Initial residual = 0.0159906, Final residual = 7.7426e-18, No Iterations 1
smoothSolver:  Solving for e, Initial residual = 0.00107468, Final residual = 5.10541e-17, No Iterations 2
smoothSolver:  Solving for p, Initial residual = 0.000386037, Final residual = 8.12081e-18, No Iterations 3
diagonal:  Solving for rho, Initial residual = 0, Final residual = 0, No Iterations 0
time step continuity errors : sum local = 7.37002e-17, global = -2.91833e-17, cumulative = 2.98684e-15
PIMPLE: iteration 2
smoothSolver:  Solving for Ux, Initial residual = 0.000251049, Final residual = 8.98063e-18, No Iterations 1
smoothSolver:  Solving for e, Initial residual = 4.70832e-05, Final residual = 3.5738e-17, No Iterations 2
smoothSolver:  Solving for p, Initial residual = 9.87244e-06, Final residual = 6.64712e-18, No Iterations 3
diagonal:  Solving for rho, Initial residual = 0, Final residual = 0, No Iterations 0
time step continuity errors : sum local = 6.1829e-17, global = -1.92907e-17, cumulative = 2.96755e-15
ExecutionTime = 0.07 s  ClockTime = 0 s

Time = 0.00011

Courant Number mean: 0.000520292 max: 0.0354107
diagonal:  Solving for rho, Initial residual = 0, Final residual = 0, No Iterations 0
PIMPLE: iteration 1
smoothSolver:  Solving for Ux, Initial residual = 0.0146037, Final residual = 1.14535e-17, No Iterations 1
smoothSolver:  Solving for e, Initial residual = 0.00102763, Final residual = 8.24723e-17, No Iterations 2
smoothSolver:  Solving for p, Initial residual = 0.000384386, Final residual = 1.49076e-17, No Iterations 3
diagonal:  Solving for rho, Initial residual = 0, Final residual = 0, No Iterations 0
time step continuity errors : sum local = 7.69153e-17, global = -2.39897e-17, cumulative = 2.94356e-15
PIMPLE: iteration 2
smoothSolver:  Solving for Ux, Initial residual = 0.000211578, Final residual = 4.34082e-18, No Iterations 1
smoothSolver:  Solving for e, Initial residual = 5.98508e-05, Final residual = 3.67821e-17, No Iterations 2
smoothSolver:  Solving for p, Initial residual = 1.17054e-05, Final residual = 1.0769e-17, No Iterations 3
diagonal:  Solving for rho, Initial residual = 0, Final residual = 0, No Iterations 0
time step continuity errors : sum local = 7.32056e-17, global = -4.45169e-18, cumulative = 2.93911e-15
ExecutionTime = 0.07 s  ClockTime = 0 s

Time = 0.00012

Courant Number mean: 0.000523695 max: 0.0342746
diagonal:  Solving for rho, Initial residual = 0, Final residual = 0, No Iterations 0
PIMPLE: iteration 1
smoothSolver:  Solving for Ux, Initial residual = 0.0134639, Final residual = 4.8488e-18, No Iterations 1
smoothSolver:  Solving for e, Initial residual = 0.00097373, Final residual = 1.34339e-16, No Iterations 2
smoothSolver:  Solving for p, Initial residual = 0.000380166, Final residual = 1.90214e-17, No Iterations 3
diagonal:  Solving for rho, Initial residual = 0, Final residual = 0, No Iterations 0
time step continuity errors : sum local = 8.85392e-17, global = -5.2431e-17, cumulative = 2.88667e-15
PIMPLE: iteration 2
smoothSolver:  Solving for Ux, Initial residual = 0.000185204, Final residual = 6.48395e-18, No Iterations 1
smoothSolver:  Solving for e, Initial residual = 6.89915e-05, Final residual = 3.71056e-17, No Iterations 2
smoothSolver:  Solving for p, Initial residual = 1.3026e-05, Final residual = 9.12794e-18, No Iterations 3
diagonal:  Solving for rho, Initial residual = 0, Final residual = 0, No Iterations 0
time step continuity errors : sum local = 6.8012e-17, global = -2.30004e-17, cumulative = 2.86367e-15
ExecutionTime = 0.07 s  ClockTime = 0 s

Time = 0.00013

Courant Number mean: 0.000527145 max: 0.0330981
diagonal:  Solving for rho, Initial residual = 0, Final residual = 0, No Iterations 0
PIMPLE: iteration 1
smoothSolver:  Solving for Ux, Initial residual = 0.0125191, Final residual = 1.24714e-17, No Iterations 1
smoothSolver:  Solving for e, Initial residual = 0.000917211, Final residual = 2.43573e-16, No Iterations 2
smoothSolver:  Solving for p, Initial residual = 0.000374246, Final residual = 2.89678e-17, No Iterations 3
diagonal:  Solving for rho, Initial residual = 0, Final residual = 0, No Iterations 0
time step continuity errors : sum local = 1.05109e-16, global = -4.13018e-17, cumulative = 2.82237e-15
PIMPLE: iteration 2
smoothSolver:  Solving for Ux, Initial residual = 0.000167437, Final residual = 1.72947e-17, No Iterations 1
smoothSolver:  Solving for e, Initial residual = 7.5064e-05, Final residual = 6.22591e-17, No Iterations 2
smoothSolver:  Solving for p, Initial residual = 1.38604e-05, Final residual = 1.2012e-17, No Iterations 3
diagonal:  Solving for rho, Initial residual = 0, Final residual = 0, No Iterations 0
time step continuity errors : sum local = 7.46895e-17, global = 1.43443e-17, cumulative = 2.83672e-15
ExecutionTime = 0.07 s  ClockTime = 0 s

Time = 0.00014

Courant Number mean: 0.000531439 max: 0.0319464
diagonal:  Solving for rho, Initial residual = 0, Final residual = 0, No Iterations 0
PIMPLE: iteration 1
smoothSolver:  Solving for Ux, Initial residual = 0.0117154, Final residual = 1.64097e-17, No Iterations 1
smoothSolver:  Solving for e, Initial residual = 0.000861093, Final residual = 4.74742e-16, No Iterations 2
smoothSolver:  Solving for p, Initial residual = 0.000367331, Final residual = 3.90444e-17, No Iterations 3
diagonal:  Solving for rho, Initial residual = 0, Final residual = 0, No Iterations 0
time step continuity errors : sum local = 1.09314e-16, global = -6.57861e-17, cumulative = 2.77093e-15
PIMPLE: iteration 2
smoothSolver:  Solving for Ux, Initial residual = 0.00015296, Final residual = 1.04701e-17, No Iterations 1
smoothSolver:  Solving for e, Initial residual = 7.67003e-05, Final residual = 8.68954e-17, No Iterations 2
smoothSolver:  Solving for p, Initial residual = 1.40548e-05, Final residual = 1.0835e-17, No Iterations 3
diagonal:  Solving for rho, Initial residual = 0, Final residual = 0, No Iterations 0
time step continuity errors : sum local = 5.76247e-17, global = -1.85487e-17, cumulative = 2.75238e-15
ExecutionTime = 0.07 s  ClockTime = 0 s

Time = 0.00015

Courant Number mean: 0.000536761 max: 0.0308583
diagonal:  Solving for rho, Initial residual = 0, Final residual = 0, No Iterations 0
PIMPLE: iteration 1
smoothSolver:  Solving for Ux, Initial residual = 0.0110197, Final residual = 1.23366e-17, No Iterations 1
smoothSolver:  Solving for e, Initial residual = 0.000807429, Final residual = 8.81032e-16, No Iterations 2
smoothSolver:  Solving for p, Initial residual = 0.000359961, Final residual = 5.5405e-17, No Iterations 3
diagonal:  Solving for rho, Initial residual = 0, Final residual = 0, No Iterations 0
time step continuity errors : sum local = 1.47895e-16, global = -8.6066e-17, cumulative = 2.66632e-15
PIMPLE: iteration 2
smoothSolver:  Solving for Ux, Initial residual = 0.000139613, Final residual = 1.11665e-17, No Iterations 1
smoothSolver:  Solving for e, Initial residual = 7.46297e-05, Final residual = 1.39034e-16, No Iterations 2
smoothSolver:  Solving for p, Initial residual = 1.37213e-05, Final residual = 1.01549e-17, No Iterations 3
diagonal:  Solving for rho, Initial residual = 0, Final residual = 0, No Iterations 0
time step continuity errors : sum local = 6.57861e-17, global = -9.89265e-18, cumulative = 2.65642e-15
ExecutionTime = 0.07 s  ClockTime = 0 s

Time = 0.00016

Courant Number mean: 0.000543028 max: 0.0298522
diagonal:  Solving for rho, Initial residual = 0, Final residual = 0, No Iterations 0
PIMPLE: iteration 1
smoothSolver:  Solving for Ux, Initial residual = 0.0104114, Final residual = 1.21489e-17, No Iterations 1
smoothSolver:  Solving for e, Initial residual = 0.000757319, Final residual = 3.58818e-17, No Iterations 3
smoothSolver:  Solving for p, Initial residual = 0.000352493, Final residual = 6.72683e-17, No Iterations 3
diagonal:  Solving for rho, Initial residual = 0, Final residual = 0, No Iterations 0
time step continuity errors : sum local = 1.76584e-16, global = -1.0783e-16, cumulative = 2.54859e-15
PIMPLE: iteration 2
smoothSolver:  Solving for Ux, Initial residual = 0.000126996, Final residual = 2.0628e-17, No Iterations 1
smoothSolver:  Solving for e, Initial residual = 7.0352e-05, Final residual = 2.11469e-16, No Iterations 2
smoothSolver:  Solving for p, Initial residual = 1.30662e-05, Final residual = 9.90062e-18, No Iterations 3
diagonal:  Solving for rho, Initial residual = 0, Final residual = 0, No Iterations 0
time step continuity errors : sum local = 6.45495e-17, global = -7.17217e-18, cumulative = 2.54142e-15
ExecutionTime = 0.08 s  ClockTime = 0 s

Time = 0.00017

Courant Number mean: 0.000550107 max: 0.028934
diagonal:  Solving for rho, Initial residual = 0, Final residual = 0, No Iterations 0
PIMPLE: iteration 1
smoothSolver:  Solving for Ux, Initial residual = 0.00987459, Final residual = 1.02845e-17, No Iterations 1
smoothSolver:  Solving for e, Initial residual = 0.00071105, Final residual = 2.86935e-17, No Iterations 3
smoothSolver:  Solving for p, Initial residual = 0.00034513, Final residual = 8.32363e-17, No Iterations 3
diagonal:  Solving for rho, Initial residual = 0, Final residual = 0, No Iterations 0
time step continuity errors : sum local = 1.84993e-16, global = -1.39486e-16, cumulative = 2.40193e-15
PIMPLE: iteration 2
smoothSolver:  Solving for Ux, Initial residual = 0.000115441, Final residual = 9.43887e-18, No Iterations 1
smoothSolver:  Solving for e, Initial residual = 6.53103e-05, Final residual = 3.1298e-16, No Iterations 2
smoothSolver:  Solving for p, Initial residual = 1.22834e-05, Final residual = 1.23346e-17, No Iterations 3
diagonal:  Solving for rho, Initial residual = 0, Final residual = 0, No Iterations 0
time step continuity errors : sum local = 8.08724e-17, global = -1.36024e-17, cumulative = 2.38833e-15
ExecutionTime = 0.08 s  ClockTime = 0 s

Time = 0.00018

Courant Number mean: 0.000557912 max: 0.0281022
diagonal:  Solving for rho, Initial residual = 0, Final residual = 0, No Iterations 0
PIMPLE: iteration 1
smoothSolver:  Solving for Ux, Initial residual = 0.00939684, Final residual = 1.02902e-17, No Iterations 1
smoothSolver:  Solving for e, Initial residual = 0.000705533, Final residual = 3.29791e-17, No Iterations 3
smoothSolver:  Solving for p, Initial residual = 0.000337974, Final residual = 9.93248e-17, No Iterations 3
diagonal:  Solving for rho, Initial residual = 0, Final residual = 0, No Iterations 0
time step continuity errors : sum local = 2.17886e-16, global = -1.71885e-16, cumulative = 2.21645e-15
PIMPLE: iteration 2
smoothSolver:  Solving for Ux, Initial residual = 0.000105201, Final residual = 6.00538e-18, No Iterations 1
smoothSolver:  Solving for e, Initial residual = 6.03416e-05, Final residual = 4.36585e-16, No Iterations 2
smoothSolver:  Solving for p, Initial residual = 1.14907e-05, Final residual = 1.7165e-17, No Iterations 3
diagonal:  Solving for rho, Initial residual = 0, Final residual = 0, No Iterations 0
time step continuity errors : sum local = 8.77972e-17, global = -8.65607e-18, cumulative = 2.20779e-15
ExecutionTime = 0.08 s  ClockTime = 0 s

Time = 0.00019

Courant Number mean: 0.000566413 max: 0.0273526
diagonal:  Solving for rho, Initial residual = 0, Final residual = 0, No Iterations 0
PIMPLE: iteration 1
smoothSolver:  Solving for Ux, Initial residual = 0.00896841, Final residual = 1.20746e-17, No Iterations 1
smoothSolver:  Solving for e, Initial residual = 0.000715607, Final residual = 3.09661e-17, No Iterations 3
smoothSolver:  Solving for p, Initial residual = 0.000331068, Final residual = 1.14401e-16, No Iterations 3
diagonal:  Solving for rho, Initial residual = 0, Final residual = 0, No Iterations 0
time step continuity errors : sum local = 2.64381e-16, global = -2.1838e-16, cumulative = 1.98941e-15
PIMPLE: iteration 2
smoothSolver:  Solving for Ux, Initial residual = 9.62509e-05, Final residual = 7.54288e-18, No Iterations 1
smoothSolver:  Solving for e, Initial residual = 5.58577e-05, Final residual = 5.87906e-16, No Iterations 2
smoothSolver:  Solving for p, Initial residual = 1.07363e-05, Final residual = 1.67861e-17, No Iterations 3
diagonal:  Solving for rho, Initial residual = 0, Final residual = 0, No Iterations 0
time step continuity errors : sum local = 8.45821e-17, global = -1.4839e-17, cumulative = 1.97457e-15
ExecutionTime = 0.08 s  ClockTime = 0 s

Time = 0.0002

Courant Number mean: 0.000575595 max: 0.0266799
diagonal:  Solving for rho, Initial residual = 0, Final residual = 0, No Iterations 0
PIMPLE: iteration 1
smoothSolver:  Solving for Ux, Initial residual = 0.00858148, Final residual = 1.04032e-17, No Iterations 1
smoothSolver:  Solving for e, Initial residual = 0.000723641, Final residual = 3.04779e-17, No Iterations 3
smoothSolver:  Solving for p, Initial residual = 0.000324431, Final residual = 1.20909e-16, No Iterations 3
diagonal:  Solving for rho, Initial residual = 0, Final residual = 0, No Iterations 0
time step continuity errors : sum local = 2.6908e-16, global = -1.90433e-16, cumulative = 1.78414e-15
PIMPLE: iteration 2
smoothSolver:  Solving for Ux, Initial residual = 8.83999e-05, Final residual = 6.1106e-18, No Iterations 1
smoothSolver:  Solving for e, Initial residual = 5.19229e-05, Final residual = 7.74263e-16, No Iterations 2
smoothSolver:  Solving for p, Initial residual = 1.0031e-05, Final residual = 1.5725e-17, No Iterations 3
diagonal:  Solving for rho, Initial residual = 0, Final residual = 0, No Iterations 0
time step continuity errors : sum local = 8.73026e-17, global = 7.6668e-18, cumulative = 1.79181e-15
ExecutionTime = 0.08 s  ClockTime = 0 s

Time = 0.00021

Courant Number mean: 0.000585447 max: 0.0260785
diagonal:  Solving for rho, Initial residual = 0, Final residual = 0, No Iterations 0
PIMPLE: iteration 1
smoothSolver:  Solving for Ux, Initial residual = 0.00822982, Final residual = 6.66199e-18, No Iterations 1
smoothSolver:  Solving for e, Initial residual = 0.000730105, Final residual = 3.10563e-17, No Iterations 3
smoothSolver:  Solving for p, Initial residual = 0.000318067, Final residual = 1.29496e-16, No Iterations 3
diagonal:  Solving for rho, Initial residual = 0, Final residual = 0, No Iterations 0
time step continuity errors : sum local = 2.8293e-16, global = -2.24068e-16, cumulative = 1.56774e-15
PIMPLE: iteration 2
smoothSolver:  Solving for Ux, Initial residual = 8.14278e-05, Final residual = 1.3011e-17, No Iterations 1
smoothSolver:  Solving for e, Initial residual = 4.7568e-05, Final residual = 9.842e-16, No Iterations 2
smoothSolver:  Solving for p, Initial residual = 9.30779e-06, Final residual = 1.58823e-17, No Iterations 3
diagonal:  Solving for rho, Initial residual = 0, Final residual = 0, No Iterations 0
time step continuity errors : sum local = 8.38402e-17, global = -3.70974e-18, cumulative = 1.56403e-15
ExecutionTime = 0.08 s  ClockTime = 0 s

Time = 0.00022

Courant Number mean: 0.000596218 max: 0.025562
diagonal:  Solving for rho, Initial residual = 0, Final residual = 0, No Iterations 0
PIMPLE: iteration 1
smoothSolver:  Solving for Ux, Initial residual = 0.007906, Final residual = 1.03202e-17, No Iterations 1
smoothSolver:  Solving for e, Initial residual = 0.000735427, Final residual = 3.41586e-17, No Iterations 3
smoothSolver:  Solving for p, Initial residual = 0.00031212, Final residual = 1.30975e-16, No Iterations 3
diagonal:  Solving for rho, Initial residual = 0, Final residual = 0, No Iterations 0
time step continuity errors : sum local = 2.73532e-16, global = -2.24563e-16, cumulative = 1.33946e-15
PIMPLE: iteration 2
smoothSolver:  Solving for Ux, Initial residual = 7.34376e-05, Final residual = 1.16194e-17, No Iterations 1
smoothSolver:  Solving for e, Initial residual = 2.99106e-05, Final residual = 8.72919e-16, No Iterations 2
smoothSolver:  Solving for p, Initial residual = 3.08137e-06, Final residual = 1.05725e-17, No Iterations 3
diagonal:  Solving for rho, Initial residual = 0, Final residual = 0, No Iterations 0
time step continuity errors : sum local = 6.77646e-17, global = -6.92485e-18, cumulative = 1.33254e-15
ExecutionTime = 0.08 s  ClockTime = 0 s

Time = 0.00023

Courant Number mean: 0.000612001 max: 0.0254092
diagonal:  Solving for rho, Initial residual = 0, Final residual = 0, No Iterations 0
PIMPLE: iteration 1
smoothSolver:  Solving for Ux, Initial residual = 0.0075703, Final residual = 1.68397e-17, No Iterations 1
smoothSolver:  Solving for e, Initial residual = 0.000741956, Final residual = 3.25544e-17, No Iterations 3
smoothSolver:  Solving for p, Initial residual = 0.000315322, Final residual = 1.41475e-16, No Iterations 3
diagonal:  Solving for rho, Initial residual = 0, Final residual = 0, No Iterations 0
time step continuity errors : sum local = 3.04941e-16, global = -2.47069e-16, cumulative = 1.08547e-15
PIMPLE: iteration 2
smoothSolver:  Solving for Ux, Initial residual = 7.95212e-05, Final residual = 9.59771e-18, No Iterations 1
smoothSolver:  Solving for e, Initial residual = 2.69094e-05, Final residual = 3.07525e-17, No Iterations 3
smoothSolver:  Solving for p, Initial residual = 2.93261e-06, Final residual = 1.02496e-17, No Iterations 3
diagonal:  Solving for rho, Initial residual = 0, Final residual = 0, No Iterations 0
time step continuity errors : sum local = 7.59261e-17, global = -1.65702e-17, cumulative = 1.0689e-15
ExecutionTime = 0.08 s  ClockTime = 0 s

Time = 0.00024

Courant Number mean: 0.000629305 max: 0.0253579
diagonal:  Solving for rho, Initial residual = 0, Final residual = 0, No Iterations 0
PIMPLE: iteration 1
smoothSolver:  Solving for Ux, Initial residual = 0.00725427, Final residual = 5.26766e-18, No Iterations 1
smoothSolver:  Solving for e, Initial residual = 0.000748595, Final residual = 3.60699e-17, No Iterations 3
smoothSolver:  Solving for p, Initial residual = 0.000319027, Final residual = 1.51625e-16, No Iterations 3
diagonal:  Solving for rho, Initial residual = 0, Final residual = 0, No Iterations 0
time step continuity errors : sum local = 3.12113e-16, global = -2.44348e-16, cumulative = 8.24552e-16
PIMPLE: iteration 2
smoothSolver:  Solving for Ux, Initial residual = 7.74156e-05, Final residual = 2.01892e-17, No Iterations 1
smoothSolver:  Solving for e, Initial residual = 2.78216e-05, Final residual = 3.55245e-17, No Iterations 3
smoothSolver:  Solving for p, Initial residual = 3.23588e-06, Final residual = 1.23814e-17, No Iterations 3
diagonal:  Solving for rho, Initial residual = 0, Final residual = 0, No Iterations 0
time step continuity errors : sum local = 7.71627e-17, global = -5.44096e-18, cumulative = 8.19111e-16
ExecutionTime = 0.08 s  ClockTime = 0 s

Time = 0.00025

Courant Number mean: 0.000647156 max: 0.0253339
diagonal:  Solving for rho, Initial residual = 0, Final residual = 0, No Iterations 0
PIMPLE: iteration 1
smoothSolver:  Solving for Ux, Initial residual = 0.00696309, Final residual = 1.29902e-17, No Iterations 1
smoothSolver:  Solving for e, Initial residual = 0.00075499, Final residual = 2.96974e-17, No Iterations 3
smoothSolver:  Solving for p, Initial residual = 0.000322593, Final residual = 1.58144e-16, No Iterations 3
diagonal:  Solving for rho, Initial residual = 0, Final residual = 0, No Iterations 0
time step continuity errors : sum local = 3.17307e-16, global = -2.718e-16, cumulative = 5.47311e-16
PIMPLE: iteration 2
smoothSolver:  Solving for Ux, Initial residual = 7.29795e-05, Final residual = 5.9345e-18, No Iterations 1
smoothSolver:  Solving for e, Initial residual = 2.95265e-05, Final residual = 2.92035e-17, No Iterations 3
smoothSolver:  Solving for p, Initial residual = 3.46217e-06, Final residual = 1.29907e-17, No Iterations 3
diagonal:  Solving for rho, Initial residual = 0, Final residual = 0, No Iterations 0
time step continuity errors : sum local = 6.38076e-17, global = -1.73121e-17, cumulative = 5.29999e-16
ExecutionTime = 0.09 s  ClockTime = 0 s

Time = 0.00026

Courant Number mean: 0.000665243 max: 0.0253153
diagonal:  Solving for rho, Initial residual = 0, Final residual = 0, No Iterations 0
PIMPLE: iteration 1
smoothSolver:  Solving for Ux, Initial residual = 0.00669604, Final residual = 5.36002e-18, No Iterations 1
smoothSolver:  Solving for e, Initial residual = 0.000761063, Final residual = 3.31761e-17, No Iterations 3
smoothSolver:  Solving for p, Initial residual = 0.000325831, Final residual = 1.71769e-16, No Iterations 3
diagonal:  Solving for rho, Initial residual = 0, Final residual = 0, No Iterations 0
time step continuity errors : sum local = 3.38081e-16, global = -2.86145e-16, cumulative = 2.43854e-16
PIMPLE: iteration 2
smoothSolver:  Solving for Ux, Initial residual = 6.80821e-05, Final residual = 9.74275e-18, No Iterations 1
smoothSolver:  Solving for e, Initial residual = 3.12784e-05, Final residual = 3.11173e-17, No Iterations 3
smoothSolver:  Solving for p, Initial residual = 3.63047e-06, Final residual = 1.0549e-17, No Iterations 3
diagonal:  Solving for rho, Initial residual = 0, Final residual = 0, No Iterations 0
time step continuity errors : sum local = 6.75173e-17, global = -1.9538e-17, cumulative = 2.24316e-16
ExecutionTime = 0.09 s  ClockTime = 0 s

Time = 0.00027

Courant Number mean: 0.00068346 max: 0.0252964
diagonal:  Solving for rho, Initial residual = 0, Final residual = 0, No Iterations 0
PIMPLE: iteration 1
smoothSolver:  Solving for Ux, Initial residual = 0.00645095, Final residual = 6.06459e-18, No Iterations 1
smoothSolver:  Solving for e, Initial residual = 0.000766828, Final residual = 3.64164e-17, No Iterations 3
smoothSolver:  Solving for p, Initial residual = 0.0003287, Final residual = 1.78506e-16, No Iterations 3
diagonal:  Solving for rho, Initial residual = 0, Final residual = 0, No Iterations 0
time step continuity errors : sum local = 3.55641e-16, global = -3.06672e-16, cumulative = -8.23563e-17
PIMPLE: iteration 2
smoothSolver:  Solving for Ux, Initial residual = 6.33005e-05, Final residual = 1.87758e-17, No Iterations 1
smoothSolver:  Solving for e, Initial residual = 3.2846e-05, Final residual = 3.30189e-17, No Iterations 3
smoothSolver:  Solving for p, Initial residual = 3.7614e-06, Final residual = 1.30441e-17, No Iterations 3
diagonal:  Solving for rho, Initial residual = 0, Final residual = 0, No Iterations 0
time step continuity errors : sum local = 6.92485e-17, global = -1.23658e-17, cumulative = -9.47221e-17
ExecutionTime = 0.09 s  ClockTime = 0 s

Time = 0.00028

Courant Number mean: 0.000701767 max: 0.0252768
diagonal:  Solving for rho, Initial residual = 0, Final residual = 0, No Iterations 0
PIMPLE: iteration 1
smoothSolver:  Solving for Ux, Initial residual = 0.00622546, Final residual = 3.34115e-18, No Iterations 1
smoothSolver:  Solving for e, Initial residual = 0.000772348, Final residual = 3.30695e-17, No Iterations 3
smoothSolver:  Solving for p, Initial residual = 0.000331211, Final residual = 1.90861e-16, No Iterations 3
diagonal:  Solving for rho, Initial residual = 0, Final residual = 0, No Iterations 0
time step continuity errors : sum local = 3.85319e-16, global = -3.24479e-16, cumulative = -4.19201e-16
PIMPLE: iteration 2
smoothSolver:  Solving for Ux, Initial residual = 5.88032e-05, Final residual = 1.10729e-17, No Iterations 1
smoothSolver:  Solving for e, Initial residual = 3.41997e-05, Final residual = 2.78227e-17, No Iterations 3
smoothSolver:  Solving for p, Initial residual = 3.82636e-06, Final residual = 1.31452e-17, No Iterations 3
diagonal:  Solving for rho, Initial residual = 0, Final residual = 0, No Iterations 0
time step continuity errors : sum local = 6.30656e-17, global = -1.31078e-17, cumulative = -4.32309e-16
ExecutionTime = 0.09 s  ClockTime = 0 s

Time = 0.00029

Courant Number mean: 0.00072015 max: 0.0252578
diagonal:  Solving for rho, Initial residual = 0, Final residual = 0, No Iterations 0
PIMPLE: iteration 1
smoothSolver:  Solving for Ux, Initial residual = 0.00601738, Final residual = 7.32686e-18, No Iterations 1
smoothSolver:  Solving for e, Initial residual = 0.000777665, Final residual = 2.92253e-17, No Iterations 3
smoothSolver:  Solving for p, Initial residual = 0.000333355, Final residual = 1.97103e-16, No Iterations 3
diagonal:  Solving for rho, Initial residual = 0, Final residual = 0, No Iterations 0
time step continuity errors : sum local = 4.02631e-16, global = -3.40307e-16, cumulative = -7.72616e-16
PIMPLE: iteration 2
smoothSolver:  Solving for Ux, Initial residual = 5.46347e-05, Final residual = 1.17849e-17, No Iterations 1
smoothSolver:  Solving for e, Initial residual = 3.53681e-05, Final residual = 3.1943e-17, No Iterations 3
smoothSolver:  Solving for p, Initial residual = 3.85979e-06, Final residual = 1.31794e-17, No Iterations 3
diagonal:  Solving for rho, Initial residual = 0, Final residual = 0, No Iterations 0
time step continuity errors : sum local = 7.6668e-17, global = -1.03873e-17, cumulative = -7.83003e-16
ExecutionTime = 0.09 s  ClockTime = 0 s

Time = 0.0003

Courant Number mean: 0.000738608 max: 0.0252409
diagonal:  Solving for rho, Initial residual = 0, Final residual = 0, No Iterations 0
PIMPLE: iteration 1
smoothSolver:  Solving for Ux, Initial residual = 0.00582235, Final residual = 1.97455e-17, No Iterations 1
smoothSolver:  Solving for e, Initial residual = 0.000782812, Final residual = 2.89057e-17, No Iterations 3
smoothSolver:  Solving for p, Initial residual = 0.00033515, Final residual = 2.07761e-16, No Iterations 3
diagonal:  Solving for rho, Initial residual = 0, Final residual = 0, No Iterations 0
time step continuity errors : sum local = 4.09556e-16, global = -3.61082e-16, cumulative = -1.14408e-15
PIMPLE: iteration 2
smoothSolver:  Solving for Ux, Initial residual = 5.07832e-05, Final residual = 1.42838e-17, No Iterations 1
smoothSolver:  Solving for e, Initial residual = 3.6402e-05, Final residual = 2.82024e-17, No Iterations 3
smoothSolver:  Solving for p, Initial residual = 3.95706e-06, Final residual = 1.16928e-17, No Iterations 3
diagonal:  Solving for rho, Initial residual = 0, Final residual = 0, No Iterations 0
time step continuity errors : sum local = 6.10871e-17, global = -8.16143e-18, cumulative = -1.15225e-15
ExecutionTime = 0.09 s  ClockTime = 0 s

Time = 0.00031

Courant Number mean: 0.000757145 max: 0.0252274
diagonal:  Solving for rho, Initial residual = 0, Final residual = 0, No Iterations 0
PIMPLE: iteration 1
smoothSolver:  Solving for Ux, Initial residual = 0.00563798, Final residual = 5.19837e-18, No Iterations 1
smoothSolver:  Solving for e, Initial residual = 0.000787819, Final residual = 2.77023e-17, No Iterations 3
smoothSolver:  Solving for p, Initial residual = 0.000336641, Final residual = 2.19354e-16, No Iterations 3
diagonal:  Solving for rho, Initial residual = 0, Final residual = 0, No Iterations 0
time step continuity errors : sum local = 4.24642e-16, global = -3.71222e-16, cumulative = -1.52347e-15
PIMPLE: iteration 2
smoothSolver:  Solving for Ux, Initial residual = 4.71744e-05, Final residual = 1.09134e-17, No Iterations 1
smoothSolver:  Solving for e, Initial residual = 3.735e-05, Final residual = 3.60758e-17, No Iterations 3
smoothSolver:  Solving for p, Initial residual = 4.08039e-06, Final residual = 1.31953e-17, No Iterations 3
diagonal:  Solving for rho, Initial residual = 0, Final residual = 0, No Iterations 0
time step continuity errors : sum local = 7.34529e-17, global = -2.22585e-18, cumulative = -1.52569e-15
ExecutionTime = 0.09 s  ClockTime = 0 s

Time = 0.00032

Courant Number mean: 0.000775926 max: 0.0252189
diagonal:  Solving for rho, Initial residual = 0, Final residual = 0, No Iterations 0
PIMPLE: iteration 1
smoothSolver:  Solving for Ux, Initial residual = 0.00546139, Final residual = 1.88322e-17, No Iterations 1
smoothSolver:  Solving for e, Initial residual = 0.000792595, Final residual = 3.07917e-17, No Iterations 3
smoothSolver:  Solving for p, Initial residual = 0.0003378, Final residual = 2.27694e-16, No Iterations 3
diagonal:  Solving for rho, Initial residual = 0, Final residual = 0, No Iterations 0
time step continuity errors : sum local = 4.49374e-16, global = -4.01394e-16, cumulative = -1.92709e-15
PIMPLE: iteration 2
smoothSolver:  Solving for Ux, Initial residual = 4.42961e-05, Final residual = 1.61151e-17, No Iterations 1
smoothSolver:  Solving for e, Initial residual = 3.83047e-05, Final residual = 3.34233e-17, No Iterations 3
smoothSolver:  Solving for p, Initial residual = 4.20832e-06, Final residual = 1.60176e-17, No Iterations 3
diagonal:  Solving for rho, Initial residual = 0, Final residual = 0, No Iterations 0
time step continuity errors : sum local = 8.77972e-17, global = -3.21511e-18, cumulative = -1.9303e-15
ExecutionTime = 0.1 s  ClockTime = 0 s

Time = 0.00033

Courant Number mean: 0.000795045 max: 0.0252169
diagonal:  Solving for rho, Initial residual = 0, Final residual = 0, No Iterations 0
PIMPLE: iteration 1
smoothSolver:  Solving for Ux, Initial residual = 0.00529487, Final residual = 1.00762e-17, No Iterations 1
smoothSolver:  Solving for e, Initial residual = 0.000797083, Final residual = 3.86738e-17, No Iterations 3
smoothSolver:  Solving for p, Initial residual = 0.000338627, Final residual = 2.40099e-16, No Iterations 3
diagonal:  Solving for rho, Initial residual = 0, Final residual = 0, No Iterations 0
time step continuity errors : sum local = 4.70643e-16, global = -3.91502e-16, cumulative = -2.3218e-15
PIMPLE: iteration 2
smoothSolver:  Solving for Ux, Initial residual = 4.20655e-05, Final residual = 1.12777e-17, No Iterations 1
smoothSolver:  Solving for e, Initial residual = 3.9264e-05, Final residual = 3.97501e-17, No Iterations 3
smoothSolver:  Solving for p, Initial residual = 4.33442e-06, Final residual = 1.56814e-17, No Iterations 3
diagonal:  Solving for rho, Initial residual = 0, Final residual = 0, No Iterations 0
time step continuity errors : sum local = 9.10124e-17, global = 3.16565e-17, cumulative = -2.29015e-15
ExecutionTime = 0.1 s  ClockTime = 0 s

Time = 0.00034

Courant Number mean: 0.000814416 max: 0.0252224
diagonal:  Solving for rho, Initial residual = 0, Final residual = 0, No Iterations 0
PIMPLE: iteration 1
smoothSolver:  Solving for Ux, Initial residual = 0.00513806, Final residual = 9.3517e-18, No Iterations 1
smoothSolver:  Solving for e, Initial residual = 0.000801377, Final residual = 3.21497e-17, No Iterations 3
smoothSolver:  Solving for p, Initial residual = 0.000339163, Final residual = 2.53557e-16, No Iterations 3
diagonal:  Solving for rho, Initial residual = 0, Final residual = 0, No Iterations 0
time step continuity errors : sum local = 4.8474e-16, global = -4.39234e-16, cumulative = -2.72938e-15
PIMPLE: iteration 2
smoothSolver:  Solving for Ux, Initial residual = 3.97681e-05, Final residual = 7.88375e-18, No Iterations 1
smoothSolver:  Solving for e, Initial residual = 4.18289e-05, Final residual = 5.67167e-17, No Iterations 3
smoothSolver:  Solving for p, Initial residual = 4.65639e-06, Final residual = 1.58083e-17, No Iterations 3
diagonal:  Solving for rho, Initial residual = 0, Final residual = 0, No Iterations 0
time step continuity errors : sum local = 8.80446e-17, global = -3.66028e-17, cumulative = -2.76598e-15
ExecutionTime = 0.1 s  ClockTime = 0 s

Time = 0.00035

Courant Number mean: 0.000833991 max: 0.0252363
diagonal:  Solving for rho, Initial residual = 0, Final residual = 0, No Iterations 0
PIMPLE: iteration 1
smoothSolver:  Solving for Ux, Initial residual = 0.0049903, Final residual = 9.3371e-18, No Iterations 1
smoothSolver:  Solving for e, Initial residual = 0.00080759, Final residual = 1.81387e-16, No Iterations 3
smoothSolver:  Solving for p, Initial residual = 0.000339429, Final residual = 2.67733e-16, No Iterations 3
diagonal:  Solving for rho, Initial residual = 0, Final residual = 0, No Iterations 0
time step continuity errors : sum local = 5.13181e-16, global = -4.56298e-16, cumulative = -3.22228e-15
PIMPLE: iteration 2
smoothSolver:  Solving for Ux, Initial residual = 3.75288e-05, Final residual = 5.6854e-18, No Iterations 1
smoothSolver:  Solving for e, Initial residual = 4.1052e-05, Final residual = 6.11555e-17, No Iterations 3
smoothSolver:  Solving for p, Initial residual = 4.57482e-06, Final residual = 1.79565e-17, No Iterations 3
diagonal:  Solving for rho, Initial residual = 0, Final residual = 0, No Iterations 0
time step continuity errors : sum local = 7.79046e-17, global = -2.3495e-17, cumulative = -3.24578e-15
ExecutionTime = 0.1 s  ClockTime = 0 s

Time = 0.00036

Courant Number mean: 0.000853739 max: 0.0252588
diagonal:  Solving for rho, Initial residual = 0, Final residual = 0, No Iterations 0
PIMPLE: iteration 1
smoothSolver:  Solving for Ux, Initial residual = 0.00489286, Final residual = 1.31238e-17, No Iterations 1
smoothSolver:  Solving for e, Initial residual = 0.000816165, Final residual = 1.86684e-16, No Iterations 3
smoothSolver:  Solving for p, Initial residual = 0.000339436, Final residual = 2.84591e-16, No Iterations 3
diagonal:  Solving for rho, Initial residual = 0, Final residual = 0, No Iterations 0
time step continuity errors : sum local = 5.54483e-16, global = -4.75342e-16, cumulative = -3.72112e-15
PIMPLE: iteration 2
smoothSolver:  Solving for Ux, Initial residual = 3.59766e-05, Final residual = 8.80441e-18, No Iterations 1
smoothSolver:  Solving for e, Initial residual = 4.18209e-05, Final residual = 6.17218e-17, No Iterations 3
smoothSolver:  Solving for p, Initial residual = 4.66937e-06, Final residual = 1.42605e-17, No Iterations 3
diagonal:  Solving for rho, Initial residual = 0, Final residual = 0, No Iterations 0
time step continuity errors : sum local = 7.44422e-17, global = -8.16143e-18, cumulative = -3.72928e-15
ExecutionTime = 0.1 s  ClockTime = 0 s

Time = 0.00037

Courant Number mean: 0.000873644 max: 0.0252905
diagonal:  Solving for rho, Initial residual = 0, Final residual = 0, No Iterations 0
PIMPLE: iteration 1
smoothSolver:  Solving for Ux, Initial residual = 0.00481372, Final residual = 1.04014e-17, No Iterations 1
smoothSolver:  Solving for e, Initial residual = 0.000827821, Final residual = 2.09157e-16, No Iterations 3
smoothSolver:  Solving for p, Initial residual = 0.000339201, Final residual = 3.0301e-16, No Iterations 3
diagonal:  Solving for rho, Initial residual = 0, Final residual = 0, No Iterations 0
time step continuity errors : sum local = 5.77978e-16, global = -5.12686e-16, cumulative = -4.24197e-15
PIMPLE: iteration 2
smoothSolver:  Solving for Ux, Initial residual = 3.66151e-05, Final residual = 8.75466e-18, No Iterations 1
smoothSolver:  Solving for e, Initial residual = 4.27127e-05, Final residual = 6.96261e-17, No Iterations 3
smoothSolver:  Solving for p, Initial residual = 4.77413e-06, Final residual = 1.75741e-17, No Iterations 3
diagonal:  Solving for rho, Initial residual = 0, Final residual = 0, No Iterations 0
time step continuity errors : sum local = 7.64207e-17, global = -1.16239e-17, cumulative = -4.25359e-15
ExecutionTime = 0.1 s  ClockTime = 0 s

Time = 0.00038

Courant Number mean: 0.000893693 max: 0.0253313
diagonal:  Solving for rho, Initial residual = 0, Final residual = 0, No Iterations 0
PIMPLE: iteration 1
smoothSolver:  Solving for Ux, Initial residual = 0.00473674, Final residual = 1.41098e-17, No Iterations 1
smoothSolver:  Solving for e, Initial residual = 0.000841449, Final residual = 2.22675e-16, No Iterations 3
smoothSolver:  Solving for p, Initial residual = 0.000338741, Final residual = 3.26767e-16, No Iterations 3
diagonal:  Solving for rho, Initial residual = 0, Final residual = 0, No Iterations 0
time step continuity errors : sum local = 6.20022e-16, global = -5.65117e-16, cumulative = -4.81871e-15
PIMPLE: iteration 2
smoothSolver:  Solving for Ux, Initial residual = 3.71775e-05, Final residual = 3.67498e-18, No Iterations 1
smoothSolver:  Solving for e, Initial residual = 4.34069e-05, Final residual = 6.89064e-17, No Iterations 3
smoothSolver:  Solving for p, Initial residual = 4.85821e-06, Final residual = 1.83681e-17, No Iterations 3
diagonal:  Solving for rho, Initial residual = 0, Final residual = 0, No Iterations 0
time step continuity errors : sum local = 7.86465e-17, global = -3.26457e-17, cumulative = -4.85135e-15
ExecutionTime = 0.11 s  ClockTime = 0 s

Time = 0.00039

Courant Number mean: 0.00091388 max: 0.0253811
diagonal:  Solving for rho, Initial residual = 0, Final residual = 0, No Iterations 0
PIMPLE: iteration 1
smoothSolver:  Solving for Ux, Initial residual = 0.00466208, Final residual = 2.91262e-17, No Iterations 1
smoothSolver:  Solving for e, Initial residual = 0.000854933, Final residual = 2.49586e-16, No Iterations 3
smoothSolver:  Solving for p, Initial residual = 0.000338077, Final residual = 3.54374e-16, No Iterations 3
diagonal:  Solving for rho, Initial residual = 0, Final residual = 0, No Iterations 0
time step continuity errors : sum local = 6.69732e-16, global = -6.03452e-16, cumulative = -5.45481e-15
PIMPLE: iteration 2
smoothSolver:  Solving for Ux, Initial residual = 3.77825e-05, Final residual = 2.05148e-17, No Iterations 1
smoothSolver:  Solving for e, Initial residual = 4.39768e-05, Final residual = 7.00447e-17, No Iterations 3
smoothSolver:  Solving for p, Initial residual = 4.929e-06, Final residual = 1.96124e-17, No Iterations 3
diagonal:  Solving for rho, Initial residual = 0, Final residual = 0, No Iterations 0
time step continuity errors : sum local = 7.741e-17, global = 4.20438e-18, cumulative = -5.4506e-15
ExecutionTime = 0.11 s  ClockTime = 0 s

Time = 0.0004

Courant Number mean: 0.000934202 max: 0.0257637
diagonal:  Solving for rho, Initial residual = 0, Final residual = 0, No Iterations 0
PIMPLE: iteration 1
smoothSolver:  Solving for Ux, Initial residual = 0.00458972, Final residual = 1.71893e-17, No Iterations 1
smoothSolver:  Solving for e, Initial residual = 0.000868344, Final residual = 2.78957e-16, No Iterations 3
smoothSolver:  Solving for p, Initial residual = 0.000337221, Final residual = 3.86232e-16, No Iterations 3
diagonal:  Solving for rho, Initial residual = 0, Final residual = 0, No Iterations 0
time step continuity errors : sum local = 7.17959e-16, global = -6.64044e-16, cumulative = -6.11465e-15
PIMPLE: iteration 2
smoothSolver:  Solving for Ux, Initial residual = 3.9135e-05, Final residual = 1.1329e-17, No Iterations 1
smoothSolver:  Solving for e, Initial residual = 4.44368e-05, Final residual = 7.71242e-17, No Iterations 3
smoothSolver:  Solving for p, Initial residual = 4.98774e-06, Final residual = 1.96766e-17, No Iterations 3
diagonal:  Solving for rho, Initial residual = 0, Final residual = 0, No Iterations 0
time step continuity errors : sum local = 7.1969e-17, global = -9.1507e-18, cumulative = -6.1238e-15
ExecutionTime = 0.11 s  ClockTime = 0 s

Time = 0.00041

Courant Number mean: 0.00095466 max: 0.0261685
diagonal:  Solving for rho, Initial residual = 0, Final residual = 0, No Iterations 0
PIMPLE: iteration 1
smoothSolver:  Solving for Ux, Initial residual = 0.00451963, Final residual = 2.89164e-17, No Iterations 1
smoothSolver:  Solving for e, Initial residual = 0.000881671, Final residual = 3.13491e-16, No Iterations 3
smoothSolver:  Solving for p, Initial residual = 0.000336183, Final residual = 4.25231e-16, No Iterations 3
diagonal:  Solving for rho, Initial residual = 0, Final residual = 0, No Iterations 0
time step continuity errors : sum local = 7.72863e-16, global = -7.3725e-16, cumulative = -6.86105e-15
PIMPLE: iteration 2
smoothSolver:  Solving for Ux, Initial residual = 4.02724e-05, Final residual = 1.34197e-17, No Iterations 1
smoothSolver:  Solving for e, Initial residual = 4.47963e-05, Final residual = 8.29691e-17, No Iterations 3
smoothSolver:  Solving for p, Initial residual = 5.03579e-06, Final residual = 2.01043e-17, No Iterations 3
diagonal:  Solving for rho, Initial residual = 0, Final residual = 0, No Iterations 0
time step continuity errors : sum local = 8.33456e-17, global = -1.50863e-17, cumulative = -6.87613e-15
ExecutionTime = 0.11 s  ClockTime = 0 s

Time = 0.00042

Courant Number mean: 0.000975262 max: 0.0265522
diagonal:  Solving for rho, Initial residual = 0, Final residual = 0, No Iterations 0
PIMPLE: iteration 1
smoothSolver:  Solving for Ux, Initial residual = 0.00445175, Final residual = 3.64472e-17, No Iterations 1
smoothSolver:  Solving for e, Initial residual = 0.000894854, Final residual = 3.49836e-16, No Iterations 3
smoothSolver:  Solving for p, Initial residual = 0.00033497, Final residual = 4.62549e-16, No Iterations 3
diagonal:  Solving for rho, Initial residual = 0, Final residual = 0, No Iterations 0
time step continuity errors : sum local = 8.31724e-16, global = -7.98584e-16, cumulative = -7.67472e-15
PIMPLE: iteration 2
smoothSolver:  Solving for Ux, Initial residual = 4.12113e-05, Final residual = 1.66658e-17, No Iterations 1
smoothSolver:  Solving for e, Initial residual = 4.50668e-05, Final residual = 8.46431e-17, No Iterations 3
smoothSolver:  Solving for p, Initial residual = 5.07477e-06, Final residual = 2.26741e-17, No Iterations 3
diagonal:  Solving for rho, Initial residual = 0, Final residual = 0, No Iterations 0
time step continuity errors : sum local = 8.08724e-17, global = -6.67754e-18, cumulative = -7.68139e-15
ExecutionTime = 0.11 s  ClockTime = 0 s

Time = 0.00043

Courant Number mean: 0.000996017 max: 0.0269159
diagonal:  Solving for rho, Initial residual = 0, Final residual = 0, No Iterations 0
PIMPLE: iteration 1
smoothSolver:  Solving for Ux, Initial residual = 0.004386, Final residual = 9.29463e-18, No Iterations 1
smoothSolver:  Solving for e, Initial residual = 0.000907837, Final residual = 3.87056e-16, No Iterations 3
smoothSolver:  Solving for p, Initial residual = 0.000333593, Final residual = 5.11649e-16, No Iterations 3
diagonal:  Solving for rho, Initial residual = 0, Final residual = 0, No Iterations 0
time step continuity errors : sum local = 9.43017e-16, global = -8.94543e-16, cumulative = -8.57594e-15
PIMPLE: iteration 2
smoothSolver:  Solving for Ux, Initial residual = 4.1969e-05, Final residual = 2.35299e-17, No Iterations 1
smoothSolver:  Solving for e, Initial residual = 4.52637e-05, Final residual = 8.49175e-17, No Iterations 3
smoothSolver:  Solving for p, Initial residual = 5.1067e-06, Final residual = 2.10752e-17, No Iterations 3
diagonal:  Solving for rho, Initial residual = 0, Final residual = 0, No Iterations 0
time step continuity errors : sum local = 7.83992e-17, global = -2.49789e-17, cumulative = -8.60092e-15
ExecutionTime = 0.11 s  ClockTime = 0 s

Time = 0.00044

Courant Number mean: 0.00101694 max: 0.0272606
diagonal:  Solving for rho, Initial residual = 0, Final residual = 0, No Iterations 0
PIMPLE: iteration 1
smoothSolver:  Solving for Ux, Initial residual = 0.00432229, Final residual = 1.22886e-17, No Iterations 1
smoothSolver:  Solving for e, Initial residual = 0.00092058, Final residual = 4.32821e-16, No Iterations 3
smoothSolver:  Solving for p, Initial residual = 0.000332059, Final residual = 5.58692e-16, No Iterations 3
diagonal:  Solving for rho, Initial residual = 0, Final residual = 0, No Iterations 0
time step continuity errors : sum local = 1.02067e-15, global = -9.8506e-16, cumulative = -9.58598e-15
PIMPLE: iteration 2
smoothSolver:  Solving for Ux, Initial residual = 4.25578e-05, Final residual = 5.70779e-18, No Iterations 1
smoothSolver:  Solving for e, Initial residual = 4.53871e-05, Final residual = 8.33675e-17, No Iterations 3
smoothSolver:  Solving for p, Initial residual = 5.13199e-06, Final residual = 2.11538e-17, No Iterations 3
diagonal:  Solving for rho, Initial residual = 0, Final residual = 0, No Iterations 0
time step continuity errors : sum local = 7.83992e-17, global = -3.04199e-17, cumulative = -9.6164e-15
ExecutionTime = 0.11 s  ClockTime = 0 s

Time = 0.00045

Courant Number mean: 0.00103806 max: 0.0275874
diagonal:  Solving for rho, Initial residual = 0, Final residual = 0, No Iterations 0
PIMPLE: iteration 1
smoothSolver:  Solving for Ux, Initial residual = 0.00426051, Final residual = 7.80631e-18, No Iterations 1
smoothSolver:  Solving for e, Initial residual = 0.000933036, Final residual = 4.7434e-16, No Iterations 3
smoothSolver:  Solving for p, Initial residual = 0.000330376, Final residual = 6.27675e-16, No Iterations 3
diagonal:  Solving for rho, Initial residual = 0, Final residual = 0, No Iterations 0
time step continuity errors : sum local = 1.15843e-15, global = -1.05505e-15, cumulative = -1.06714e-14
PIMPLE: iteration 2
smoothSolver:  Solving for Ux, Initial residual = 4.28747e-05, Final residual = 8.18143e-18, No Iterations 1
smoothSolver:  Solving for e, Initial residual = 4.51267e-05, Final residual = 8.74247e-17, No Iterations 3
smoothSolver:  Solving for p, Initial residual = 5.19394e-06, Final residual = 2.19111e-17, No Iterations 3
diagonal:  Solving for rho, Initial residual = 0, Final residual = 0, No Iterations 0
time step continuity errors : sum local = 9.37328e-17, global = -6.67754e-18, cumulative = -1.06781e-14
ExecutionTime = 0.12 s  ClockTime = 0 s

Time = 0.00046

Courant Number mean: 0.00105926 max: 0.0278901
diagonal:  Solving for rho, Initial residual = 0, Final residual = 0, No Iterations 0
PIMPLE: iteration 1
smoothSolver:  Solving for Ux, Initial residual = 0.00420064, Final residual = 7.84163e-18, No Iterations 1
smoothSolver:  Solving for e, Initial residual = 0.000944854, Final residual = 5.15086e-16, No Iterations 3
smoothSolver:  Solving for p, Initial residual = 0.000331123, Final residual = 7.0754e-16, No Iterations 3
diagonal:  Solving for rho, Initial residual = 0, Final residual = 0, No Iterations 0
time step continuity errors : sum local = 1.29074e-15, global = -1.16362e-15, cumulative = -1.18417e-14
PIMPLE: iteration 2
smoothSolver:  Solving for Ux, Initial residual = 4.28695e-05, Final residual = 1.5295e-17, No Iterations 1
smoothSolver:  Solving for e, Initial residual = 4.43934e-05, Final residual = 8.24479e-17, No Iterations 3
smoothSolver:  Solving for p, Initial residual = 5.20866e-06, Final residual = 2.05254e-17, No Iterations 3
diagonal:  Solving for rho, Initial residual = 0, Final residual = 0, No Iterations 0
time step continuity errors : sum local = 1.16981e-16, global = -3.8334e-17, cumulative = -1.18801e-14
ExecutionTime = 0.12 s  ClockTime = 0 s

Time = 0.00047

Courant Number mean: 0.0010804 max: 0.0281619
diagonal:  Solving for rho, Initial residual = 0, Final residual = 0, No Iterations 0
PIMPLE: iteration 1
smoothSolver:  Solving for Ux, Initial residual = 0.00414264, Final residual = 1.07788e-17, No Iterations 1
smoothSolver:  Solving for e, Initial residual = 0.000955614, Final residual = 5.44167e-16, No Iterations 3
smoothSolver:  Solving for p, Initial residual = 0.000337857, Final residual = 7.84772e-16, No Iterations 3
diagonal:  Solving for rho, Initial residual = 0, Final residual = 0, No Iterations 0
time step continuity errors : sum local = 1.41564e-15, global = -1.244e-15, cumulative = -1.31241e-14
PIMPLE: iteration 2
smoothSolver:  Solving for Ux, Initial residual = 4.25571e-05, Final residual = 1.5095e-17, No Iterations 1
smoothSolver:  Solving for e, Initial residual = 4.32549e-05, Final residual = 7.48849e-17, No Iterations 3
smoothSolver:  Solving for p, Initial residual = 5.15372e-06, Final residual = 2.11229e-17, No Iterations 3
diagonal:  Solving for rho, Initial residual = 0, Final residual = 0, No Iterations 0
time step continuity errors : sum local = 9.05177e-17, global = -2.91833e-17, cumulative = -1.31533e-14
ExecutionTime = 0.12 s  ClockTime = 0 s

Time = 0.00048

Courant Number mean: 0.00110138 max: 0.0283983
diagonal:  Solving for rho, Initial residual = 0, Final residual = 0, No Iterations 0
PIMPLE: iteration 1
smoothSolver:  Solving for Ux, Initial residual = 0.00408647, Final residual = 1.22024e-17, No Iterations 1
smoothSolver:  Solving for e, Initial residual = 0.000964963, Final residual = 5.7213e-16, No Iterations 3
smoothSolver:  Solving for p, Initial residual = 0.000344078, Final residual = 8.58685e-16, No Iterations 3
diagonal:  Solving for rho, Initial residual = 0, Final residual = 0, No Iterations 0
time step continuity errors : sum local = 1.54103e-15, global = -1.32487e-15, cumulative = -1.44781e-14
PIMPLE: iteration 2
smoothSolver:  Solving for Ux, Initial residual = 4.19745e-05, Final residual = 1.38969e-17, No Iterations 1
smoothSolver:  Solving for e, Initial residual = 4.20572e-05, Final residual = 5.84354e-17, No Iterations 3
smoothSolver:  Solving for p, Initial residual = 5.0527e-06, Final residual = 2.08542e-17, No Iterations 3
diagonal:  Solving for rho, Initial residual = 0, Final residual = 0, No Iterations 0
time step continuity errors : sum local = 1.1055e-16, global = -8.65607e-18, cumulative = -1.44868e-14
ExecutionTime = 0.12 s  ClockTime = 0 s

Time = 0.00049

Courant Number mean: 0.00112213 max: 0.028598
diagonal:  Solving for rho, Initial residual = 0, Final residual = 0, No Iterations 0
PIMPLE: iteration 1
smoothSolver:  Solving for Ux, Initial residual = 0.00403204, Final residual = 1.44428e-17, No Iterations 1
smoothSolver:  Solving for e, Initial residual = 0.000972652, Final residual = 5.84389e-16, No Iterations 3
smoothSolver:  Solving for p, Initial residual = 0.000349724, Final residual = 9.25564e-16, No Iterations 3
diagonal:  Solving for rho, Initial residual = 0, Final residual = 0, No Iterations 0
time step continuity errors : sum local = 1.67235e-15, global = -1.40723e-15, cumulative = -1.5894e-14
PIMPLE: iteration 2
smoothSolver:  Solving for Ux, Initial residual = 4.11729e-05, Final residual = 3.08916e-17, No Iterations 1
smoothSolver:  Solving for e, Initial residual = 4.073e-05, Final residual = 5.22304e-17, No Iterations 3
smoothSolver:  Solving for p, Initial residual = 4.91729e-06, Final residual = 2.00541e-17, No Iterations 3
diagonal:  Solving for rho, Initial residual = 0, Final residual = 0, No Iterations 0
time step continuity errors : sum local = 9.22489e-17, global = 8.65607e-18, cumulative = -1.58854e-14
ExecutionTime = 0.12 s  ClockTime = 0 s

Time = 0.0005

Courant Number mean: 0.00114263 max: 0.0287618
diagonal:  Solving for rho, Initial residual = 0, Final residual = 0, No Iterations 0
PIMPLE: iteration 1
smoothSolver:  Solving for Ux, Initial residual = 0.0039792, Final residual = 8.43321e-18, No Iterations 1
smoothSolver:  Solving for e, Initial residual = 0.000978541, Final residual = 5.7366e-16, No Iterations 3
smoothSolver:  Solving for p, Initial residual = 0.000354763, Final residual = 9.76161e-16, No Iterations 3
diagonal:  Solving for rho, Initial residual = 0, Final residual = 0, No Iterations 0
time step continuity errors : sum local = 1.7458e-15, global = -1.47821e-15, cumulative = -1.73636e-14
PIMPLE: iteration 2
smoothSolver:  Solving for Ux, Initial residual = 4.02076e-05, Final residual = 1.1915e-17, No Iterations 1
smoothSolver:  Solving for e, Initial residual = 3.92284e-05, Final residual = 3.0412e-17, No Iterations 3
smoothSolver:  Solving for p, Initial residual = 4.75936e-06, Final residual = 2.03202e-17, No Iterations 3
diagonal:  Solving for rho, Initial residual = 0, Final residual = 0, No Iterations 0
time step continuity errors : sum local = 1.04615e-16, global = -2.22585e-18, cumulative = -1.73658e-14
ExecutionTime = 0.12 s  ClockTime = 0 s

Time = 0.00051

Courant Number mean: 0.00116288 max: 0.0288927
diagonal:  Solving for rho, Initial residual = 0, Final residual = 0, No Iterations 0
PIMPLE: iteration 1
smoothSolver:  Solving for Ux, Initial residual = 0.00392764, Final residual = 5.26177e-18, No Iterations 1
smoothSolver:  Solving for e, Initial residual = 0.000982585, Final residual = 5.59379e-16, No Iterations 3
smoothSolver:  Solving for p, Initial residual = 0.000359196, Final residual = 1.81858e-17, No Iterations 4
diagonal:  Solving for rho, Initial residual = 0, Final residual = 0, No Iterations 0
time step continuity errors : sum local = 7.93885e-17, global = 5.19364e-18, cumulative = -1.73606e-14
PIMPLE: iteration 2
smoothSolver:  Solving for Ux, Initial residual = 3.91283e-05, Final residual = 6.8023e-18, No Iterations 1
smoothSolver:  Solving for e, Initial residual = 3.9344e-05, Final residual = 4.22094e-17, No Iterations 3
smoothSolver:  Solving for p, Initial residual = 4.77815e-06, Final residual = 2.37759e-17, No Iterations 3
diagonal:  Solving for rho, Initial residual = 0, Final residual = 0, No Iterations 0
time step continuity errors : sum local = 9.84318e-17, global = 1.53336e-17, cumulative = -1.73453e-14
ExecutionTime = 0.13 s  ClockTime = 0 s

Time = 0.00052

Courant Number mean: 0.00118291 max: 0.0289948
diagonal:  Solving for rho, Initial residual = 0, Final residual = 0, No Iterations 0
PIMPLE: iteration 1
smoothSolver:  Solving for Ux, Initial residual = 0.00387684, Final residual = 2.7984e-17, No Iterations 1
smoothSolver:  Solving for e, Initial residual = 0.00098482, Final residual = 5.24506e-16, No Iterations 3
smoothSolver:  Solving for p, Initial residual = 0.000363041, Final residual = 1.59578e-17, No Iterations 4
diagonal:  Solving for rho, Initial residual = 0, Final residual = 0, No Iterations 0
time step continuity errors : sum local = 8.1367e-17, global = -1.60756e-17, cumulative = -1.73613e-14
PIMPLE: iteration 2
smoothSolver:  Solving for Ux, Initial residual = 3.79714e-05, Final residual = 2.50555e-17, No Iterations 1
smoothSolver:  Solving for e, Initial residual = 3.96289e-05, Final residual = 6.06578e-17, No Iterations 3
smoothSolver:  Solving for p, Initial residual = 4.79668e-06, Final residual = 2.36033e-17, No Iterations 3
diagonal:  Solving for rho, Initial residual = 0, Final residual = 0, No Iterations 0
time step continuity errors : sum local = 9.34855e-17, global = -6.43022e-18, cumulative = -1.73678e-14
ExecutionTime = 0.13 s  ClockTime = 0 s

Time = 0.00053

Courant Number mean: 0.00120276 max: 0.0290727
diagonal:  Solving for rho, Initial residual = 0, Final residual = 0, No Iterations 0
PIMPLE: iteration 1
smoothSolver:  Solving for Ux, Initial residual = 0.00382663, Final residual = 7.38003e-18, No Iterations 1
smoothSolver:  Solving for e, Initial residual = 0.000985104, Final residual = 4.7475e-16, No Iterations 3
smoothSolver:  Solving for p, Initial residual = 0.000366334, Final residual = 1.50975e-17, No Iterations 4
diagonal:  Solving for rho, Initial residual = 0, Final residual = 0, No Iterations 0
time step continuity errors : sum local = 7.81519e-17, global = -1.78068e-17, cumulative = -1.73856e-14
PIMPLE: iteration 2
smoothSolver:  Solving for Ux, Initial residual = 3.67797e-05, Final residual = 8.68718e-18, No Iterations 1
smoothSolver:  Solving for e, Initial residual = 3.98066e-05, Final residual = 6.57436e-17, No Iterations 3
smoothSolver:  Solving for p, Initial residual = 4.80345e-06, Final residual = 2.2063e-17, No Iterations 3
diagonal:  Solving for rho, Initial residual = 0, Final residual = 0, No Iterations 0
time step continuity errors : sum local = 9.34855e-17, global = -2.96779e-18, cumulative = -1.73886e-14
ExecutionTime = 0.13 s  ClockTime = 0 s

Time = 0.00054

Courant Number mean: 0.00122248 max: 0.0291311
diagonal:  Solving for rho, Initial residual = 0, Final residual = 0, No Iterations 0
PIMPLE: iteration 1
smoothSolver:  Solving for Ux, Initial residual = 0.00377724, Final residual = 1.83457e-17, No Iterations 1
smoothSolver:  Solving for e, Initial residual = 0.000983154, Final residual = 4.18081e-16, No Iterations 3
smoothSolver:  Solving for p, Initial residual = 0.000369117, Final residual = 1.48349e-17, No Iterations 4
diagonal:  Solving for rho, Initial residual = 0, Final residual = 0, No Iterations 0
time step continuity errors : sum local = 8.95285e-17, global = -1.18712e-17, cumulative = -1.74004e-14
PIMPLE: iteration 2
smoothSolver:  Solving for Ux, Initial residual = 3.55782e-05, Final residual = 1.19728e-17, No Iterations 1
smoothSolver:  Solving for e, Initial residual = 3.98777e-05, Final residual = 8.46528e-17, No Iterations 3
smoothSolver:  Solving for p, Initial residual = 4.80122e-06, Final residual = 2.28909e-17, No Iterations 3
diagonal:  Solving for rho, Initial residual = 0, Final residual = 0, No Iterations 0
time step continuity errors : sum local = 1.03131e-16, global = 1.06346e-17, cumulative = -1.73898e-14
ExecutionTime = 0.13 s  ClockTime = 0 s

Time = 0.00055

Courant Number mean: 0.00124211 max: 0.0291743
diagonal:  Solving for rho, Initial residual = 0, Final residual = 0, No Iterations 0
PIMPLE: iteration 1
smoothSolver:  Solving for Ux, Initial residual = 0.0037285, Final residual = 1.58517e-17, No Iterations 1
smoothSolver:  Solving for e, Initial residual = 0.000979379, Final residual = 3.39858e-16, No Iterations 3
smoothSolver:  Solving for p, Initial residual = 0.000371432, Final residual = 1.68306e-17, No Iterations 4
diagonal:  Solving for rho, Initial residual = 0, Final residual = 0, No Iterations 0
time step continuity errors : sum local = 9.02704e-17, global = 3.70974e-18, cumulative = -1.73861e-14
PIMPLE: iteration 2
smoothSolver:  Solving for Ux, Initial residual = 3.43842e-05, Final residual = 1.05733e-17, No Iterations 1
smoothSolver:  Solving for e, Initial residual = 3.98817e-05, Final residual = 9.02082e-17, No Iterations 3
smoothSolver:  Solving for p, Initial residual = 4.7907e-06, Final residual = 2.76923e-17, No Iterations 3
diagonal:  Solving for rho, Initial residual = 0, Final residual = 0, No Iterations 0
time step continuity errors : sum local = 9.20016e-17, global = -1.13765e-17, cumulative = -1.73975e-14
ExecutionTime = 0.13 s  ClockTime = 0 s

Time = 0.00056

Courant Number mean: 0.00126176 max: 0.0292064
diagonal:  Solving for rho, Initial residual = 0, Final residual = 0, No Iterations 0
PIMPLE: iteration 1
smoothSolver:  Solving for Ux, Initial residual = 0.00368012, Final residual = 1.03764e-17, No Iterations 1
smoothSolver:  Solving for e, Initial residual = 0.000974271, Final residual = 2.59322e-16, No Iterations 3
smoothSolver:  Solving for p, Initial residual = 0.000373319, Final residual = 1.78909e-17, No Iterations 4
diagonal:  Solving for rho, Initial residual = 0, Final residual = 0, No Iterations 0
time step continuity errors : sum local = 1.06841e-16, global = 1.8796e-17, cumulative = -1.73787e-14
PIMPLE: iteration 2
smoothSolver:  Solving for Ux, Initial residual = 3.33054e-05, Final residual = 1.16225e-17, No Iterations 1
smoothSolver:  Solving for e, Initial residual = 3.98468e-05, Final residual = 1.09181e-16, No Iterations 3
smoothSolver:  Solving for p, Initial residual = 4.77617e-06, Final residual = 2.75843e-17, No Iterations 3
diagonal:  Solving for rho, Initial residual = 0, Final residual = 0, No Iterations 0
time step continuity errors : sum local = 1.05357e-16, global = 1.28604e-17, cumulative = -1.73658e-14
ExecutionTime = 0.13 s  ClockTime = 0 s

Time = 0.00057

Courant Number mean: 0.00128152 max: 0.0292306
diagonal:  Solving for rho, Initial residual = 0, Final residual = 0, No Iterations 0
PIMPLE: iteration 1
smoothSolver:  Solving for Ux, Initial residual = 0.00363193, Final residual = 1.46186e-17, No Iterations 1
smoothSolver:  Solving for e, Initial residual = 0.000967966, Final residual = 1.72951e-16, No Iterations 3
smoothSolver:  Solving for p, Initial residual = 0.000374818, Final residual = 1.52364e-17, No Iterations 4
diagonal:  Solving for rho, Initial residual = 0, Final residual = 0, No Iterations 0
time step continuity errors : sum local = 8.55714e-17, global = -1.18712e-17, cumulative = -1.73777e-14
PIMPLE: iteration 2
smoothSolver:  Solving for Ux, Initial residual = 3.22996e-05, Final residual = 9.53306e-18, No Iterations 1
smoothSolver:  Solving for e, Initial residual = 4.7868e-05, Final residual = 1.90861e-16, No Iterations 3
smoothSolver:  Solving for p, Initial residual = 7.6576e-06, Final residual = 5.51136e-17, No Iterations 3
diagonal:  Solving for rho, Initial residual = 0, Final residual = 0, No Iterations 0
time step continuity errors : sum local = 1.73863e-16, global = 2.99253e-17, cumulative = -1.73477e-14
ExecutionTime = 0.13 s  ClockTime = 0 s

Time = 0.00058

Courant Number mean: 0.00130512 max: 0.0294049
diagonal:  Solving for rho, Initial residual = 0, Final residual = 0, No Iterations 0
PIMPLE: iteration 1
smoothSolver:  Solving for Ux, Initial residual = 0.00359801, Final residual = 8.51314e-18, No Iterations 1
smoothSolver:  Solving for e, Initial residual = 0.00096229, Final residual = 1.45732e-16, No Iterations 3
smoothSolver:  Solving for p, Initial residual = 0.000375538, Final residual = 1.49658e-17, No Iterations 4
diagonal:  Solving for rho, Initial residual = 0, Final residual = 0, No Iterations 0
time step continuity errors : sum local = 9.22489e-17, global = -1.50863e-17, cumulative = -1.73628e-14
PIMPLE: iteration 2
smoothSolver:  Solving for Ux, Initial residual = 3.28755e-05, Final residual = 5.12654e-18, No Iterations 1
smoothSolver:  Solving for e, Initial residual = 7.49047e-05, Final residual = 5.37345e-16, No Iterations 3
smoothSolver:  Solving for p, Initial residual = 1.25977e-05, Final residual = 1.01225e-16, No Iterations 3
diagonal:  Solving for rho, Initial residual = 0, Final residual = 0, No Iterations 0
time step continuity errors : sum local = 2.31488e-16, global = 8.16143e-17, cumulative = -1.72812e-14
ExecutionTime = 0.14 s  ClockTime = 0 s

Time = 0.00059

Courant Number mean: 0.00133442 max: 0.0298139
diagonal:  Solving for rho, Initial residual = 0, Final residual = 0, No Iterations 0
PIMPLE: iteration 1
smoothSolver:  Solving for Ux, Initial residual = 0.00360898, Final residual = 1.48922e-17, No Iterations 1
smoothSolver:  Solving for e, Initial residual = 0.00100363, Final residual = 4.28291e-17, No Iterations 4
smoothSolver:  Solving for p, Initial residual = 0.000373768, Final residual = 9.87022e-16, No Iterations 3
diagonal:  Solving for rho, Initial residual = 0, Final residual = 0, No Iterations 0
time step continuity errors : sum local = 1.76089e-15, global = -1.34095e-15, cumulative = -1.86222e-14
PIMPLE: iteration 2
smoothSolver:  Solving for Ux, Initial residual = 3.42646e-05, Final residual = 1.04739e-17, No Iterations 1
smoothSolver:  Solving for e, Initial residual = 7.89658e-05, Final residual = 5.9048e-16, No Iterations 3
smoothSolver:  Solving for p, Initial residual = 1.22953e-05, Final residual = 9.8244e-17, No Iterations 3
diagonal:  Solving for rho, Initial residual = 0, Final residual = 0, No Iterations 0
time step continuity errors : sum local = 2.41875e-16, global = 6.97432e-17, cumulative = -1.85524e-14
ExecutionTime = 0.14 s  ClockTime = 0 s

Time = 0.0006

Courant Number mean: 0.00136644 max: 0.0303475
diagonal:  Solving for rho, Initial residual = 0, Final residual = 0, No Iterations 0
PIMPLE: iteration 1
smoothSolver:  Solving for Ux, Initial residual = 0.00361543, Final residual = 1.4409e-17, No Iterations 1
smoothSolver:  Solving for e, Initial residual = 0.00104881, Final residual = 3.54946e-17, No Iterations 4
smoothSolver:  Solving for p, Initial residual = 0.000371669, Final residual = 9.18338e-16, No Iterations 3
diagonal:  Solving for rho, Initial residual = 0, Final residual = 0, No Iterations 0
time step continuity errors : sum local = 1.63451e-15, global = -1.25216e-15, cumulative = -1.98046e-14
PIMPLE: iteration 2
smoothSolver:  Solving for Ux, Initial residual = 3.45409e-05, Final residual = 1.41416e-17, No Iterations 1
smoothSolver:  Solving for e, Initial residual = 8.3434e-05, Final residual = 6.89559e-16, No Iterations 3
smoothSolver:  Solving for p, Initial residual = 1.2001e-05, Final residual = 9.75445e-17, No Iterations 3
diagonal:  Solving for rho, Initial residual = 0, Final residual = 0, No Iterations 0
time step continuity errors : sum local = 2.28767e-16, global = 7.93885e-17, cumulative = -1.97252e-14
ExecutionTime = 0.14 s  ClockTime = 0 s

Time = 0.00061

Courant Number mean: 0.00140028 max: 0.0309785
diagonal:  Solving for rho, Initial residual = 0, Final residual = 0, No Iterations 0
PIMPLE: iteration 1
smoothSolver:  Solving for Ux, Initial residual = 0.00361631, Final residual = 6.902e-18, No Iterations 1
smoothSolver:  Solving for e, Initial residual = 0.00109442, Final residual = 3.88276e-17, No Iterations 4
smoothSolver:  Solving for p, Initial residual = 0.00036915, Final residual = 8.86459e-16, No Iterations 3
diagonal:  Solving for rho, Initial residual = 0, Final residual = 0, No Iterations 0
time step continuity errors : sum local = 1.58406e-15, global = -1.22149e-15, cumulative = -2.09467e-14
PIMPLE: iteration 2
smoothSolver:  Solving for Ux, Initial residual = 3.40655e-05, Final residual = 7.01105e-18, No Iterations 1
smoothSolver:  Solving for e, Initial residual = 8.61715e-05, Final residual = 7.9984e-16, No Iterations 3
smoothSolver:  Solving for p, Initial residual = 1.14408e-05, Final residual = 9.29299e-17, No Iterations 3
diagonal:  Solving for rho, Initial residual = 0, Final residual = 0, No Iterations 0
time step continuity errors : sum local = 2.15907e-16, global = 4.08072e-17, cumulative = -2.09059e-14
ExecutionTime = 0.14 s  ClockTime = 0 s

Time = 0.00062

Courant Number mean: 0.0014353 max: 0.0316886
diagonal:  Solving for rho, Initial residual = 0, Final residual = 0, No Iterations 0
PIMPLE: iteration 1
smoothSolver:  Solving for Ux, Initial residual = 0.00361074, Final residual = 1.0954e-17, No Iterations 1
smoothSolver:  Solving for e, Initial residual = 0.00113827, Final residual = 3.33622e-17, No Iterations 4
smoothSolver:  Solving for p, Initial residual = 0.000366168, Final residual = 9.11729e-16, No Iterations 3
diagonal:  Solving for rho, Initial residual = 0, Final residual = 0, No Iterations 0
time step continuity errors : sum local = 1.61893e-15, global = -1.26774e-15, cumulative = -2.21736e-14
PIMPLE: iteration 2
smoothSolver:  Solving for Ux, Initial residual = 3.21926e-05, Final residual = 1.68909e-17, No Iterations 1
smoothSolver:  Solving for e, Initial residual = 8.19208e-05, Final residual = 8.11583e-16, No Iterations 3
smoothSolver:  Solving for p, Initial residual = 1.00879e-05, Final residual = 8.55128e-17, No Iterations 3
diagonal:  Solving for rho, Initial residual = 0, Final residual = 0, No Iterations 0
time step continuity errors : sum local = 1.95627e-16, global = 3.68501e-17, cumulative = -2.21368e-14
ExecutionTime = 0.14 s  ClockTime = 0 s

Time = 0.00063

Courant Number mean: 0.0014688 max: 0.0323683
diagonal:  Solving for rho, Initial residual = 0, Final residual = 0, No Iterations 0
PIMPLE: iteration 1
[...]
smoothSolver:  Solving for Ux, Initial residual = 0.000359757, Final residual = 3.68143e-17, No Iterations 1
smoothSolver:  Solving for e, Initial residual = 0.000728502, Final residual = 8.52123e-17, No Iterations 4
smoothSolver:  Solving for p, Initial residual = 0.000369975, Final residual = 1.85589e-16, No Iterations 3
diagonal:  Solving for rho, Initial residual = 0, Final residual = 0, No Iterations 0
time step continuity errors : sum local = 2.31397e-16, global = 2.30395e-17, cumulative = -3.33848e-13
PIMPLE: iteration 2
smoothSolver:  Solving for Ux, Initial residual = 1.7971e-07, Final residual = 3.56163e-17, No Iterations 1
smoothSolver:  Solving for e, Initial residual = 4.27395e-06, Final residual = 8.4471e-17, No Iterations 3
smoothSolver:  Solving for p, Initial residual = 1.29848e-06, Final residual = 6.32379e-17, No Iterations 3
diagonal:  Solving for rho, Initial residual = 0, Final residual = 0, No Iterations 0
time step continuity errors : sum local = 1.38237e-16, global = -1.00172e-17, cumulative = -3.33858e-13
ExecutionTime = 1.66 s  ClockTime = 2 s

Time = 0.00986

Courant Number mean: 0.0201859 max: 0.0294785
diagonal:  Solving for rho, Initial residual = 0, Final residual = 0, No Iterations 0
PIMPLE: iteration 1
smoothSolver:  Solving for Ux, Initial residual = 0.00035985, Final residual = 3.286e-17, No Iterations 1
smoothSolver:  Solving for e, Initial residual = 0.000728483, Final residual = 7.36438e-17, No Iterations 4
smoothSolver:  Solving for p, Initial residual = 0.000370286, Final residual = 1.94456e-16, No Iterations 3
diagonal:  Solving for rho, Initial residual = 0, Final residual = 0, No Iterations 0
time step continuity errors : sum local = 2.25418e-16, global = 2.90538e-17, cumulative = -3.33829e-13
PIMPLE: iteration 2
smoothSolver:  Solving for Ux, Initial residual = 1.80021e-07, Final residual = 4.22583e-17, No Iterations 1
smoothSolver:  Solving for e, Initial residual = 4.25758e-06, Final residual = 8.29385e-17, No Iterations 3
smoothSolver:  Solving for p, Initial residual = 1.27258e-06, Final residual = 7.10461e-17, No Iterations 3
diagonal:  Solving for rho, Initial residual = 0, Final residual = 0, No Iterations 0
time step continuity errors : sum local = 1.18219e-16, global = -1.80334e-17, cumulative = -3.33847e-13
ExecutionTime = 1.66 s  ClockTime = 2 s

Time = 0.00987

Courant Number mean: 0.0201917 max: 0.0294772
diagonal:  Solving for rho, Initial residual = 0, Final residual = 0, No Iterations 0
PIMPLE: iteration 1
smoothSolver:  Solving for Ux, Initial residual = 0.000359945, Final residual = 4.61956e-17, No Iterations 1
smoothSolver:  Solving for e, Initial residual = 0.000728468, Final residual = 6.98078e-17, No Iterations 4
smoothSolver:  Solving for p, Initial residual = 0.000370463, Final residual = 1.88267e-16, No Iterations 3
diagonal:  Solving for rho, Initial residual = 0, Final residual = 0, No Iterations 0
time step continuity errors : sum local = 2.20438e-16, global = 5.81156e-17, cumulative = -3.33789e-13
PIMPLE: iteration 2
smoothSolver:  Solving for Ux, Initial residual = 1.80348e-07, Final residual = 3.5823e-17, No Iterations 1
smoothSolver:  Solving for e, Initial residual = 4.15297e-06, Final residual = 8.97104e-17, No Iterations 3
smoothSolver:  Solving for p, Initial residual = 1.23436e-06, Final residual = 7.0126e-17, No Iterations 3
diagonal:  Solving for rho, Initial residual = 0, Final residual = 0, No Iterations 0
time step continuity errors : sum local = 1.33265e-16, global = 9.01794e-18, cumulative = -3.3378e-13
ExecutionTime = 1.66 s  ClockTime = 2 s

Time = 0.00988

Courant Number mean: 0.0201975 max: 0.0294769
diagonal:  Solving for rho, Initial residual = 0, Final residual = 0, No Iterations 0
PIMPLE: iteration 1
smoothSolver:  Solving for Ux, Initial residual = 0.000360053, Final residual = 3.80496e-17, No Iterations 1
smoothSolver:  Solving for e, Initial residual = 0.000728479, Final residual = 7.0776e-17, No Iterations 4
smoothSolver:  Solving for p, Initial residual = 0.000370552, Final residual = 1.90804e-16, No Iterations 3
diagonal:  Solving for rho, Initial residual = 0, Final residual = 0, No Iterations 0
time step continuity errors : sum local = 2.35501e-16, global = -2.3049e-17, cumulative = -3.33803e-13
PIMPLE: iteration 2
smoothSolver:  Solving for Ux, Initial residual = 1.80562e-07, Final residual = 3.66711e-17, No Iterations 1
smoothSolver:  Solving for e, Initial residual = 3.98818e-06, Final residual = 8.64322e-17, No Iterations 3
smoothSolver:  Solving for p, Initial residual = 1.2033e-06, Final residual = 7.92824e-17, No Iterations 3
diagonal:  Solving for rho, Initial residual = 0, Final residual = 0, No Iterations 0
time step continuity errors : sum local = 1.52324e-16, global = -2.00426e-18, cumulative = -3.33805e-13
ExecutionTime = 1.66 s  ClockTime = 2 s

Time = 0.00989

Courant Number mean: 0.0202033 max: 0.0294777
diagonal:  Solving for rho, Initial residual = 0, Final residual = 0, No Iterations 0
PIMPLE: iteration 1
smoothSolver:  Solving for Ux, Initial residual = 0.000360175, Final residual = 3.99976e-17, No Iterations 1
smoothSolver:  Solving for e, Initial residual = 0.000728814, Final residual = 7.31862e-17, No Iterations 4
smoothSolver:  Solving for p, Initial residual = 0.000370548, Final residual = 1.7653e-16, No Iterations 3
diagonal:  Solving for rho, Initial residual = 0, Final residual = 0, No Iterations 0
time step continuity errors : sum local = 2.20499e-16, global = 4.00907e-17, cumulative = -3.33765e-13
PIMPLE: iteration 2
smoothSolver:  Solving for Ux, Initial residual = 1.80613e-07, Final residual = 4.32569e-17, No Iterations 1
smoothSolver:  Solving for e, Initial residual = 3.91421e-06, Final residual = 7.67287e-17, No Iterations 3
smoothSolver:  Solving for p, Initial residual = 1.21087e-06, Final residual = 8.12299e-17, No Iterations 3
diagonal:  Solving for rho, Initial residual = 0, Final residual = 0, No Iterations 0
time step continuity errors : sum local = 1.46331e-16, global = -2.00454e-17, cumulative = -3.33785e-13
ExecutionTime = 1.67 s  ClockTime = 2 s

Time = 0.0099

Courant Number mean: 0.0202092 max: 0.0294783
diagonal:  Solving for rho, Initial residual = 0, Final residual = 0, No Iterations 0
PIMPLE: iteration 1
smoothSolver:  Solving for Ux, Initial residual = 0.000360348, Final residual = 3.59418e-17, No Iterations 1
smoothSolver:  Solving for e, Initial residual = 0.000729084, Final residual = 6.77447e-17, No Iterations 4
smoothSolver:  Solving for p, Initial residual = 0.000370394, Final residual = 1.73729e-16, No Iterations 3
diagonal:  Solving for rho, Initial residual = 0, Final residual = 0, No Iterations 0
time step continuity errors : sum local = 2.21532e-16, global = 3.90938e-17, cumulative = -3.33746e-13
PIMPLE: iteration 2
smoothSolver:  Solving for Ux, Initial residual = 1.80537e-07, Final residual = 4.31652e-17, No Iterations 1
smoothSolver:  Solving for e, Initial residual = 3.89581e-06, Final residual = 8.47467e-17, No Iterations 3
smoothSolver:  Solving for p, Initial residual = 1.26379e-06, Final residual = 6.54934e-17, No Iterations 3
diagonal:  Solving for rho, Initial residual = 0, Final residual = 0, No Iterations 0
time step continuity errors : sum local = 1.14274e-16, global = -6.01444e-18, cumulative = -3.33752e-13
ExecutionTime = 1.67 s  ClockTime = 2 s

Time = 0.00991

Courant Number mean: 0.0202151 max: 0.0294806
diagonal:  Solving for rho, Initial residual = 0, Final residual = 0, No Iterations 0
PIMPLE: iteration 1
smoothSolver:  Solving for Ux, Initial residual = 0.000360513, Final residual = 3.70525e-17, No Iterations 1
smoothSolver:  Solving for e, Initial residual = 0.000729222, Final residual = 6.68362e-17, No Iterations 4
smoothSolver:  Solving for p, Initial residual = 0.000370463, Final residual = 1.74297e-16, No Iterations 3
diagonal:  Solving for rho, Initial residual = 0, Final residual = 0, No Iterations 0
time step continuity errors : sum local = 2.11537e-16, global = 5.51399e-17, cumulative = -3.33697e-13
PIMPLE: iteration 2
smoothSolver:  Solving for Ux, Initial residual = 1.80433e-07, Final residual = 3.83008e-17, No Iterations 1
smoothSolver:  Solving for e, Initial residual = 3.87059e-06, Final residual = 8.28609e-17, No Iterations 3
smoothSolver:  Solving for p, Initial residual = 1.18158e-06, Final residual = 7.29311e-17, No Iterations 3
diagonal:  Solving for rho, Initial residual = 0, Final residual = 0, No Iterations 0
time step continuity errors : sum local = 1.6943e-16, global = 2.50636e-17, cumulative = -3.33672e-13
ExecutionTime = 1.67 s  ClockTime = 2 s

Time = 0.00992

Courant Number mean: 0.020221 max: 0.0294829
diagonal:  Solving for rho, Initial residual = 0, Final residual = 0, No Iterations 0
PIMPLE: iteration 1
smoothSolver:  Solving for Ux, Initial residual = 0.000360673, Final residual = 3.66927e-17, No Iterations 1
smoothSolver:  Solving for e, Initial residual = 0.000729194, Final residual = 7.65767e-17, No Iterations 4
smoothSolver:  Solving for p, Initial residual = 0.000370431, Final residual = 1.88023e-16, No Iterations 3
diagonal:  Solving for rho, Initial residual = 0, Final residual = 0, No Iterations 0
time step continuity errors : sum local = 2.22595e-16, global = 2.00536e-17, cumulative = -3.33652e-13
PIMPLE: iteration 2
smoothSolver:  Solving for Ux, Initial residual = 1.80277e-07, Final residual = 3.37318e-17, No Iterations 1
smoothSolver:  Solving for e, Initial residual = 3.83705e-06, Final residual = 8.32066e-17, No Iterations 3
smoothSolver:  Solving for p, Initial residual = 1.17103e-06, Final residual = 7.36222e-17, No Iterations 3
diagonal:  Solving for rho, Initial residual = 0, Final residual = 0, No Iterations 0
time step continuity errors : sum local = 1.57421e-16, global = -5.01341e-18, cumulative = -3.33657e-13
ExecutionTime = 1.67 s  ClockTime = 2 s

Time = 0.00993

Courant Number mean: 0.020227 max: 0.0294847
diagonal:  Solving for rho, Initial residual = 0, Final residual = 0, No Iterations 0
PIMPLE: iteration 1
smoothSolver:  Solving for Ux, Initial residual = 0.000360828, Final residual = 4.58167e-17, No Iterations 1
smoothSolver:  Solving for e, Initial residual = 0.00072897, Final residual = 7.25401e-17, No Iterations 4
smoothSolver:  Solving for p, Initial residual = 0.000370344, Final residual = 1.93994e-16, No Iterations 3
diagonal:  Solving for rho, Initial residual = 0, Final residual = 0, No Iterations 0
time step continuity errors : sum local = 2.30649e-16, global = 4.81353e-17, cumulative = -3.33609e-13
PIMPLE: iteration 2
smoothSolver:  Solving for Ux, Initial residual = 1.80015e-07, Final residual = 3.82748e-17, No Iterations 1
smoothSolver:  Solving for e, Initial residual = 4.92764e-06, Final residual = 1.02031e-16, No Iterations 3
smoothSolver:  Solving for p, Initial residual = 1.59039e-06, Final residual = 6.10326e-17, No Iterations 3
diagonal:  Solving for rho, Initial residual = 0, Final residual = 0, No Iterations 0
time step continuity errors : sum local = 1.45409e-16, global = -7.01974e-18, cumulative = -3.33616e-13
ExecutionTime = 1.67 s  ClockTime = 2 s

Time = 0.00994

Courant Number mean: 0.0202328 max: 0.0294866
diagonal:  Solving for rho, Initial residual = 0, Final residual = 0, No Iterations 0
PIMPLE: iteration 1
smoothSolver:  Solving for Ux, Initial residual = 0.000360975, Final residual = 4.09831e-17, No Iterations 1
smoothSolver:  Solving for e, Initial residual = 0.000728952, Final residual = 7.92611e-17, No Iterations 4
smoothSolver:  Solving for p, Initial residual = 0.000370681, Final residual = 1.83263e-16, No Iterations 3
diagonal:  Solving for rho, Initial residual = 0, Final residual = 0, No Iterations 0
time step continuity errors : sum local = 2.17642e-16, global = 7.72277e-17, cumulative = -3.33538e-13
PIMPLE: iteration 2
smoothSolver:  Solving for Ux, Initial residual = 1.79533e-07, Final residual = 3.77875e-17, No Iterations 1
smoothSolver:  Solving for e, Initial residual = 4.84351e-06, Final residual = 1.00401e-16, No Iterations 3
smoothSolver:  Solving for p, Initial residual = 1.48351e-06, Final residual = 7.83837e-17, No Iterations 3
diagonal:  Solving for rho, Initial residual = 0, Final residual = 0, No Iterations 0
time step continuity errors : sum local = 1.2537e-16, global = -1.00296e-18, cumulative = -3.33539e-13
ExecutionTime = 1.67 s  ClockTime = 2 s

Time = 0.00995

Courant Number mean: 0.0202386 max: 0.0294883
diagonal:  Solving for rho, Initial residual = 0, Final residual = 0, No Iterations 0
PIMPLE: iteration 1
smoothSolver:  Solving for Ux, Initial residual = 0.000361128, Final residual = 4.60316e-17, No Iterations 1
smoothSolver:  Solving for e, Initial residual = 0.000729335, Final residual = 7.89159e-17, No Iterations 4
smoothSolver:  Solving for p, Initial residual = 0.000371283, Final residual = 1.89798e-16, No Iterations 3
diagonal:  Solving for rho, Initial residual = 0, Final residual = 0, No Iterations 0
time step continuity errors : sum local = 2.07641e-16, global = 5.51703e-17, cumulative = -3.33484e-13
PIMPLE: iteration 2
smoothSolver:  Solving for Ux, Initial residual = 1.79257e-07, Final residual = 4.28789e-17, No Iterations 1
smoothSolver:  Solving for e, Initial residual = 4.60479e-06, Final residual = 1.00078e-16, No Iterations 3
smoothSolver:  Solving for p, Initial residual = 1.33386e-06, Final residual = 6.42081e-17, No Iterations 3
diagonal:  Solving for rho, Initial residual = 0, Final residual = 0, No Iterations 0
time step continuity errors : sum local = 1.23381e-16, global = 7.02167e-18, cumulative = -3.33477e-13
ExecutionTime = 1.67 s  ClockTime = 2 s

Time = 0.00996

Courant Number mean: 0.0202444 max: 0.029489
diagonal:  Solving for rho, Initial residual = 0, Final residual = 0, No Iterations 0
PIMPLE: iteration 1
smoothSolver:  Solving for Ux, Initial residual = 0.000361291, Final residual = 4.65364e-17, No Iterations 1
smoothSolver:  Solving for e, Initial residual = 0.000729646, Final residual = 7.39211e-17, No Iterations 4
smoothSolver:  Solving for p, Initial residual = 0.000371571, Final residual = 1.84063e-16, No Iterations 3
diagonal:  Solving for rho, Initial residual = 0, Final residual = 0, No Iterations 0
time step continuity errors : sum local = 2.02653e-16, global = 2.80906e-17, cumulative = -3.33449e-13
PIMPLE: iteration 2
smoothSolver:  Solving for Ux, Initial residual = 1.79149e-07, Final residual = 4.53696e-17, No Iterations 1
smoothSolver:  Solving for e, Initial residual = 4.27525e-06, Final residual = 9.44682e-17, No Iterations 3
smoothSolver:  Solving for p, Initial residual = 1.20836e-06, Final residual = 6.90236e-17, No Iterations 3
diagonal:  Solving for rho, Initial residual = 0, Final residual = 0, No Iterations 0
time step continuity errors : sum local = 1.44466e-16, global = -1.40453e-17, cumulative = -3.33463e-13
ExecutionTime = 1.68 s  ClockTime = 2 s

Time = 0.00997

Courant Number mean: 0.0202502 max: 0.0294887
diagonal:  Solving for rho, Initial residual = 0, Final residual = 0, No Iterations 0
PIMPLE: iteration 1
smoothSolver:  Solving for Ux, Initial residual = 0.000361464, Final residual = 3.55322e-17, No Iterations 1
smoothSolver:  Solving for e, Initial residual = 0.000729908, Final residual = 8.27028e-17, No Iterations 4
smoothSolver:  Solving for p, Initial residual = 0.000371637, Final residual = 2.07969e-16, No Iterations 3
diagonal:  Solving for rho, Initial residual = 0, Final residual = 0, No Iterations 0
time step continuity errors : sum local = 2.32782e-16, global = 3.61214e-17, cumulative = -3.33427e-13
PIMPLE: iteration 2
smoothSolver:  Solving for Ux, Initial residual = 1.79108e-07, Final residual = 3.828e-17, No Iterations 1
smoothSolver:  Solving for e, Initial residual = 4.08862e-06, Final residual = 8.78825e-17, No Iterations 3
smoothSolver:  Solving for p, Initial residual = 1.1656e-06, Final residual = 7.35615e-17, No Iterations 3
diagonal:  Solving for rho, Initial residual = 0, Final residual = 0, No Iterations 0
time step continuity errors : sum local = 1.67563e-16, global = -3.11046e-17, cumulative = -3.33458e-13
ExecutionTime = 1.68 s  ClockTime = 2 s

Time = 0.00998

Courant Number mean: 0.0202559 max: 0.0294874
diagonal:  Solving for rho, Initial residual = 0, Final residual = 0, No Iterations 0
PIMPLE: iteration 1
smoothSolver:  Solving for Ux, Initial residual = 0.000361635, Final residual = 3.5857e-17, No Iterations 1
smoothSolver:  Solving for e, Initial residual = 0.000730067, Final residual = 7.90959e-17, No Iterations 4
smoothSolver:  Solving for p, Initial residual = 0.000371633, Final residual = 1.88863e-16, No Iterations 3
diagonal:  Solving for rho, Initial residual = 0, Final residual = 0, No Iterations 0
time step continuity errors : sum local = 2.2278e-16, global = 8.02809e-17, cumulative = -3.33378e-13
PIMPLE: iteration 2
smoothSolver:  Solving for Ux, Initial residual = 1.79146e-07, Final residual = 4.02109e-17, No Iterations 1
smoothSolver:  Solving for e, Initial residual = 3.97426e-06, Final residual = 8.73614e-17, No Iterations 3
smoothSolver:  Solving for p, Initial residual = 1.19545e-06, Final residual = 6.79596e-17, No Iterations 3
diagonal:  Solving for rho, Initial residual = 0, Final residual = 0, No Iterations 0
time step continuity errors : sum local = 1.42499e-16, global = 1.80632e-17, cumulative = -3.3336e-13
ExecutionTime = 1.68 s  ClockTime = 2 s

Time = 0.00999

Courant Number mean: 0.0202617 max: 0.0294853
diagonal:  Solving for rho, Initial residual = 0, Final residual = 0, No Iterations 0
PIMPLE: iteration 1
smoothSolver:  Solving for Ux, Initial residual = 0.000361798, Final residual = 3.63523e-17, No Iterations 1
smoothSolver:  Solving for e, Initial residual = 0.000729949, Final residual = 6.54329e-17, No Iterations 4
smoothSolver:  Solving for p, Initial residual = 0.000371714, Final residual = 1.98942e-16, No Iterations 3
diagonal:  Solving for rho, Initial residual = 0, Final residual = 0, No Iterations 0
time step continuity errors : sum local = 2.26825e-16, global = 7.82847e-17, cumulative = -3.33281e-13
PIMPLE: iteration 2
smoothSolver:  Solving for Ux, Initial residual = 1.78921e-07, Final residual = 3.56033e-17, No Iterations 1
smoothSolver:  Solving for e, Initial residual = 3.87571e-06, Final residual = 9.7659e-17, No Iterations 3
smoothSolver:  Solving for p, Initial residual = 1.24335e-06, Final residual = 7.47372e-17, No Iterations 3
diagonal:  Solving for rho, Initial residual = 0, Final residual = 0, No Iterations 0
time step continuity errors : sum local = 1.31478e-16, global = -1.00365e-18, cumulative = -3.33282e-13
ExecutionTime = 1.68 s  ClockTime = 2 s

Time = 0.01

Courant Number mean: 0.0202673 max: 0.0294825
diagonal:  Solving for rho, Initial residual = 0, Final residual = 0, No Iterations 0
PIMPLE: iteration 1
smoothSolver:  Solving for Ux, Initial residual = 0.00036197, Final residual = 3.90533e-17, No Iterations 1
smoothSolver:  Solving for e, Initial residual = 0.000729702, Final residual = 8.41889e-17, No Iterations 4
smoothSolver:  Solving for p, Initial residual = 0.000371523, Final residual = 1.95313e-16, No Iterations 3
diagonal:  Solving for rho, Initial residual = 0, Final residual = 0, No Iterations 0
time step continuity errors : sum local = 2.52955e-16, global = 2.81061e-17, cumulative = -3.33254e-13
PIMPLE: iteration 2
smoothSolver:  Solving for Ux, Initial residual = 1.78587e-07, Final residual = 3.58526e-17, No Iterations 1
smoothSolver:  Solving for e, Initial residual = 4.04275e-06, Final residual = 8.84908e-17, No Iterations 3
smoothSolver:  Solving for p, Initial residual = 1.27757e-06, Final residual = 6.98112e-17, No Iterations 3
diagonal:  Solving for rho, Initial residual = 0, Final residual = 0, No Iterations 0
time step continuity errors : sum local = 1.62614e-16, global = 4.01516e-18, cumulative = -3.3325e-13
ExecutionTime = 1.68 s  ClockTime = 2 s

    functionObjects::mag mag(U) writing field: mag(U)
End

