/*---------------------------------------------------------------------------*\
| =========                 |                                                 |
| \\      /  F ield         | OpenFOAM: The Open Source CFD Toolbox           |
|  \\    /   O peration     | Version:  2012                                  |
|   \\  /    A nd           | Website:  www.openfoam.com                      |
|    \\/     M anipulation  |                                                 |
\*---------------------------------------------------------------------------*/
Build  : _269d0ffd5c-20210619 OPENFOAM=2012 patch=210618
Arch   : "LSB;label=32;scalar=64"
Exec   : mhdPimpleFoam
Date   : Apr 04 2022
Time   : 11:30:06
Host   : gabrielmarconcini-Lenovo-G50-80
PID    : 50583
I/O    : uncollated
Case   : /home/gabrielmarconcini/Documentos/TCC/PTCC/ShockTube/sim/NewSolver/ShockTube3_1000
nProcs : 1
trapFpe: Floating point exception trapping enabled (FOAM_SIGFPE).
fileModificationChecking : Monitoring run-time modified files using timeStampMaster (fileModificationSkew 5, maxFileModificationPolls 20)
allowSystemOperations : Allowing user-supplied system call operations

// * * * * * * * * * * * * * * * * * * * * * * * * * * * * * * * * * * * * * //
Create time

Create mesh for time = 0


PIMPLE: no residual control data found. Calculations will employ 3 corrector loops

Reading thermophysical properties

Selecting thermodynamics package 
{
    type            hePsiThermo;
    mixture         pureMixture;
    transport       const;
    thermo          eConst;
    equationOfState perfectGas;
    specie          specie;
    energy          sensibleInternalEnergy;
}

Reading field U

Reading/calculating face flux field phi

Creating turbulence model

Selecting turbulence model type laminar
Selecting laminar stress model Stokes
Creating field dpdt

Creating field kinetic energy K

No MRF models present

No finite volume options present
Courant Number mean: 0 max: 0

Starting time loop

Courant Number mean: 0 max: 0
Time = 1e-05

PIMPLE: iteration 1
diagonal:  Solving for rho, Initial residual = 0, Final residual = 0, No Iterations 0
smoothSolver:  Solving for Ux, Initial residual = 1, Final residual = 0, No Iterations 1
smoothSolver:  Solving for e, Initial residual = 2.85024e-17, Final residual = 2.85024e-17, No Iterations 0
smoothSolver:  Solving for p, Initial residual = 0.000178178, Final residual = 6.67182e-17, No Iterations 6
diagonal:  Solving for rho, Initial residual = 0, Final residual = 0, No Iterations 0
time step continuity errors : sum local = 1.28481e-16, global = -8.60413e-17, cumulative = -8.60413e-17
PIMPLE: iteration 2
smoothSolver:  Solving for Ux, Initial residual = 0.0374577, Final residual = 6.57125e-18, No Iterations 1
smoothSolver:  Solving for e, Initial residual = 0.00110255, Final residual = 8.85683e-18, No Iterations 3
smoothSolver:  Solving for p, Initial residual = 9.07615e-05, Final residual = 8.75862e-16, No Iterations 5
diagonal:  Solving for rho, Initial residual = 0, Final residual = 0, No Iterations 0
time step continuity errors : sum local = 1.5894e-15, global = -6.23583e-16, cumulative = -7.09624e-16
PIMPLE: iteration 3
smoothSolver:  Solving for Ux, Initial residual = 0.00612767, Final residual = 8.64547e-18, No Iterations 1
smoothSolver:  Solving for e, Initial residual = 0.000241429, Final residual = 9.67064e-18, No Iterations 3
smoothSolver:  Solving for p, Initial residual = 1.06707e-05, Final residual = 1.77417e-16, No Iterations 5
diagonal:  Solving for rho, Initial residual = 0, Final residual = 0, No Iterations 0
time step continuity errors : sum local = 3.36399e-16, global = 1.75347e-16, cumulative = -5.34277e-16
ExecutionTime = 0.05 s  ClockTime = 0 s

Courant Number mean: 0.000330272 max: 0.222609
Time = 2e-05

PIMPLE: iteration 1
diagonal:  Solving for rho, Initial residual = 0, Final residual = 0, No Iterations 0
smoothSolver:  Solving for Ux, Initial residual = 0.120713, Final residual = 1.13372e-17, No Iterations 1
smoothSolver:  Solving for e, Initial residual = 0.000611501, Final residual = 1.11283e-17, No Iterations 3
smoothSolver:  Solving for p, Initial residual = 0.000341042, Final residual = 8.10398e-17, No Iterations 6
diagonal:  Solving for rho, Initial residual = 0, Final residual = 0, No Iterations 0
time step continuity errors : sum local = 1.80862e-16, global = -6.47226e-17, cumulative = -5.99e-16
PIMPLE: iteration 2
smoothSolver:  Solving for Ux, Initial residual = 0.0195004, Final residual = 1.33779e-18, No Iterations 1
smoothSolver:  Solving for e, Initial residual = 0.000361767, Final residual = 2.05869e-17, No Iterations 4
smoothSolver:  Solving for p, Initial residual = 5.16512e-05, Final residual = 4.01035e-16, No Iterations 5
diagonal:  Solving for rho, Initial residual = 0, Final residual = 0, No Iterations 0
time step continuity errors : sum local = 7.49096e-16, global = 3.53909e-17, cumulative = -5.63609e-16
PIMPLE: iteration 3
smoothSolver:  Solving for Ux, Initial residual = 0.00356925, Final residual = 1.44428e-17, No Iterations 1
smoothSolver:  Solving for e, Initial residual = 0.000105625, Final residual = 6.07088e-17, No Iterations 4
smoothSolver:  Solving for p, Initial residual = 1.4259e-05, Final residual = 1.60346e-16, No Iterations 5
diagonal:  Solving for rho, Initial residual = 0, Final residual = 0, No Iterations 0
time step continuity errors : sum local = 3.12583e-16, global = 1.17253e-16, cumulative = -4.46356e-16
ExecutionTime = 0.05 s  ClockTime = 0 s

Courant Number mean: 0.000644179 max: 0.300067
Time = 3e-05

PIMPLE: iteration 1
diagonal:  Solving for rho, Initial residual = 0, Final residual = 0, No Iterations 0
smoothSolver:  Solving for Ux, Initial residual = 0.0649533, Final residual = 3.13832e-17, No Iterations 1
smoothSolver:  Solving for e, Initial residual = 0.000756171, Final residual = 1.49563e-16, No Iterations 4
smoothSolver:  Solving for p, Initial residual = 0.000383146, Final residual = 7.99586e-17, No Iterations 6
diagonal:  Solving for rho, Initial residual = 0, Final residual = 0, No Iterations 0
time step continuity errors : sum local = 1.70525e-16, global = -6.75421e-17, cumulative = -5.13898e-16
PIMPLE: iteration 2
smoothSolver:  Solving for Ux, Initial residual = 0.00606987, Final residual = 7.84857e-18, No Iterations 1
smoothSolver:  Solving for e, Initial residual = 0.000287061, Final residual = 2.01053e-17, No Iterations 5
smoothSolver:  Solving for p, Initial residual = 6.04038e-05, Final residual = 3.54944e-16, No Iterations 5
diagonal:  Solving for rho, Initial residual = 0, Final residual = 0, No Iterations 0
time step continuity errors : sum local = 6.48982e-16, global = 2.14497e-16, cumulative = -2.99401e-16
PIMPLE: iteration 3
smoothSolver:  Solving for Ux, Initial residual = 0.00204742, Final residual = 1.2234e-17, No Iterations 1
smoothSolver:  Solving for e, Initial residual = 0.000158542, Final residual = 2.34264e-17, No Iterations 5
smoothSolver:  Solving for p, Initial residual = 1.49115e-05, Final residual = 1.50891e-16, No Iterations 5
diagonal:  Solving for rho, Initial residual = 0, Final residual = 0, No Iterations 0
time step continuity errors : sum local = 2.9077e-16, global = 1.0731e-16, cumulative = -1.9209e-16
ExecutionTime = 0.06 s  ClockTime = 0 s

Courant Number mean: 0.000830532 max: 0.2883
Time = 4e-05

PIMPLE: iteration 1
diagonal:  Solving for rho, Initial residual = 0, Final residual = 0, No Iterations 0
smoothSolver:  Solving for Ux, Initial residual = 0.0460628, Final residual = 1.45285e-17, No Iterations 1
smoothSolver:  Solving for e, Initial residual = 0.000752084, Final residual = 9.07652e-17, No Iterations 4
smoothSolver:  Solving for p, Initial residual = 0.000371561, Final residual = 7.54809e-17, No Iterations 6
diagonal:  Solving for rho, Initial residual = 0, Final residual = 0, No Iterations 0
time step continuity errors : sum local = 1.6125e-16, global = -6.93969e-17, cumulative = -2.61487e-16
PIMPLE: iteration 2
smoothSolver:  Solving for Ux, Initial residual = 0.00406925, Final residual = 8.97758e-18, No Iterations 1
smoothSolver:  Solving for e, Initial residual = 0.000274291, Final residual = 1.25294e-16, No Iterations 6
smoothSolver:  Solving for p, Initial residual = 6.21191e-05, Final residual = 3.58922e-16, No Iterations 5
diagonal:  Solving for rho, Initial residual = 0, Final residual = 0, No Iterations 0
time step continuity errors : sum local = 6.56971e-16, global = 2.86788e-16, cumulative = 2.53004e-17
PIMPLE: iteration 3
smoothSolver:  Solving for Ux, Initial residual = 0.00158096, Final residual = 9.4163e-18, No Iterations 1
smoothSolver:  Solving for e, Initial residual = 0.000148888, Final residual = 2.29098e-16, No Iterations 6
smoothSolver:  Solving for p, Initial residual = 1.47055e-05, Final residual = 1.37978e-16, No Iterations 5
diagonal:  Solving for rho, Initial residual = 0, Final residual = 0, No Iterations 0
time step continuity errors : sum local = 2.61463e-16, global = 9.56619e-17, cumulative = 1.20962e-16
ExecutionTime = 0.06 s  ClockTime = 0 s

Courant Number mean: 0.00103136 max: 0.275551
Time = 5e-05

PIMPLE: iteration 1
diagonal:  Solving for rho, Initial residual = 0, Final residual = 0, No Iterations 0
smoothSolver:  Solving for Ux, Initial residual = 0.0385571, Final residual = 1.23603e-17, No Iterations 1
smoothSolver:  Solving for e, Initial residual = 0.000800856, Final residual = 5.29508e-17, No Iterations 6
smoothSolver:  Solving for p, Initial residual = 0.000352645, Final residual = 7.31434e-17, No Iterations 6
diagonal:  Solving for rho, Initial residual = 0, Final residual = 0, No Iterations 0
time step continuity errors : sum local = 1.58258e-16, global = -6.59592e-17, cumulative = 5.50031e-17
PIMPLE: iteration 2
smoothSolver:  Solving for Ux, Initial residual = 0.00305841, Final residual = 9.67851e-18, No Iterations 1
smoothSolver:  Solving for e, Initial residual = 0.000282838, Final residual = 1.36225e-16, No Iterations 6
smoothSolver:  Solving for p, Initial residual = 5.73577e-05, Final residual = 3.61578e-16, No Iterations 5
diagonal:  Solving for rho, Initial residual = 0, Final residual = 0, No Iterations 0
time step continuity errors : sum local = 6.72725e-16, global = 3.10407e-16, cumulative = 3.6541e-16
PIMPLE: iteration 3
smoothSolver:  Solving for Ux, Initial residual = 0.00143038, Final residual = 2.73814e-17, No Iterations 1
smoothSolver:  Solving for e, Initial residual = 0.000146446, Final residual = 1.15603e-16, No Iterations 6
smoothSolver:  Solving for p, Initial residual = 1.56228e-05, Final residual = 1.37063e-16, No Iterations 5
diagonal:  Solving for rho, Initial residual = 0, Final residual = 0, No Iterations 0
time step continuity errors : sum local = 2.6814e-16, global = 9.26446e-17, cumulative = 4.58054e-16
ExecutionTime = 0.07 s  ClockTime = 0 s

Courant Number mean: 0.00124351 max: 0.282772
Time = 6e-05

PIMPLE: iteration 1
diagonal:  Solving for rho, Initial residual = 0, Final residual = 0, No Iterations 0
smoothSolver:  Solving for Ux, Initial residual = 0.0328285, Final residual = 2.13886e-17, No Iterations 1
smoothSolver:  Solving for e, Initial residual = 0.000827658, Final residual = 2.29112e-16, No Iterations 6
smoothSolver:  Solving for p, Initial residual = 0.000330263, Final residual = 7.37437e-17, No Iterations 6
diagonal:  Solving for rho, Initial residual = 0, Final residual = 0, No Iterations 0
time step continuity errors : sum local = 1.62808e-16, global = -5.86881e-17, cumulative = 3.99366e-16
PIMPLE: iteration 2
smoothSolver:  Solving for Ux, Initial residual = 0.00224684, Final residual = 1.28194e-17, No Iterations 1
smoothSolver:  Solving for e, Initial residual = 0.000265894, Final residual = 3.93479e-16, No Iterations 6
smoothSolver:  Solving for p, Initial residual = 5.34169e-05, Final residual = 3.6779e-16, No Iterations 5
diagonal:  Solving for rho, Initial residual = 0, Final residual = 0, No Iterations 0
time step continuity errors : sum local = 6.83063e-16, global = 3.15848e-16, cumulative = 7.15214e-16
PIMPLE: iteration 3
smoothSolver:  Solving for Ux, Initial residual = 0.00110597, Final residual = 1.02771e-17, No Iterations 1
smoothSolver:  Solving for e, Initial residual = 0.000136802, Final residual = 4.40796e-17, No Iterations 7
smoothSolver:  Solving for p, Initial residual = 1.4891e-05, Final residual = 1.32485e-16, No Iterations 5
diagonal:  Solving for rho, Initial residual = 0, Final residual = 0, No Iterations 0
time step continuity errors : sum local = 2.64084e-16, global = 9.26941e-17, cumulative = 8.07908e-16
ExecutionTime = 0.07 s  ClockTime = 0 s

Courant Number mean: 0.00146019 max: 0.293633
Time = 7e-05

PIMPLE: iteration 1
diagonal:  Solving for rho, Initial residual = 0, Final residual = 0, No Iterations 0
smoothSolver:  Solving for Ux, Initial residual = 0.0281346, Final residual = 1.40458e-17, No Iterations 1
smoothSolver:  Solving for e, Initial residual = 0.000858752, Final residual = 4.89586e-17, No Iterations 7
smoothSolver:  Solving for p, Initial residual = 0.000311986, Final residual = 7.29672e-17, No Iterations 6
diagonal:  Solving for rho, Initial residual = 0, Final residual = 0, No Iterations 0
time step continuity errors : sum local = 1.59742e-16, global = -4.95374e-17, cumulative = 7.5837e-16
PIMPLE: iteration 2
smoothSolver:  Solving for Ux, Initial residual = 0.00179832, Final residual = 1.00194e-17, No Iterations 1
smoothSolver:  Solving for e, Initial residual = 0.000231472, Final residual = 5.17566e-16, No Iterations 6
smoothSolver:  Solving for p, Initial residual = 4.60952e-05, Final residual = 3.36667e-16, No Iterations 5
diagonal:  Solving for rho, Initial residual = 0, Final residual = 0, No Iterations 0
time step continuity errors : sum local = 6.21802e-16, global = 2.81495e-16, cumulative = 1.03987e-15
PIMPLE: iteration 3
smoothSolver:  Solving for Ux, Initial residual = 0.000838526, Final residual = 7.74493e-18, No Iterations 1
smoothSolver:  Solving for e, Initial residual = 0.000125099, Final residual = 9.0301e-16, No Iterations 6
smoothSolver:  Solving for p, Initial residual = 1.45054e-05, Final residual = 1.3101e-16, No Iterations 5
diagonal:  Solving for rho, Initial residual = 0, Final residual = 0, No Iterations 0
time step continuity errors : sum local = 2.57159e-16, global = 7.83003e-17, cumulative = 1.11817e-15
ExecutionTime = 0.08 s  ClockTime = 0 s

Courant Number mean: 0.00167849 max: 0.29669
Time = 8e-05

PIMPLE: iteration 1
diagonal:  Solving for rho, Initial residual = 0, Final residual = 0, No Iterations 0
smoothSolver:  Solving for Ux, Initial residual = 0.0247378, Final residual = 1.53609e-17, No Iterations 1
smoothSolver:  Solving for e, Initial residual = 0.000873816, Final residual = 5.17533e-17, No Iterations 7
smoothSolver:  Solving for p, Initial residual = 0.000306054, Final residual = 7.05618e-17, No Iterations 6
diagonal:  Solving for rho, Initial residual = 0, Final residual = 0, No Iterations 0
time step continuity errors : sum local = 1.49602e-16, global = -4.62729e-17, cumulative = 1.07189e-15
PIMPLE: iteration 2
smoothSolver:  Solving for Ux, Initial residual = 0.00143118, Final residual = 1.44212e-17, No Iterations 1
smoothSolver:  Solving for e, Initial residual = 0.000219045, Final residual = 8.83147e-16, No Iterations 6
smoothSolver:  Solving for p, Initial residual = 4.10542e-05, Final residual = 3.38811e-16, No Iterations 5
diagonal:  Solving for rho, Initial residual = 0, Final residual = 0, No Iterations 0
time step continuity errors : sum local = 6.28604e-16, global = 2.6213e-16, cumulative = 1.33402e-15
PIMPLE: iteration 3
smoothSolver:  Solving for Ux, Initial residual = 0.000655027, Final residual = 1.20316e-17, No Iterations 1
smoothSolver:  Solving for e, Initial residual = 0.000125594, Final residual = 7.17574e-17, No Iterations 7
smoothSolver:  Solving for p, Initial residual = 1.38496e-05, Final residual = 1.24491e-16, No Iterations 5
diagonal:  Solving for rho, Initial residual = 0, Final residual = 0, No Iterations 0
time step continuity errors : sum local = 2.45857e-16, global = 8.92564e-17, cumulative = 1.42328e-15
ExecutionTime = 0.08 s  ClockTime = 0 s

Courant Number mean: 0.00189697 max: 0.295017
Time = 9e-05

PIMPLE: iteration 1
diagonal:  Solving for rho, Initial residual = 0, Final residual = 0, No Iterations 0
smoothSolver:  Solving for Ux, Initial residual = 0.0221697, Final residual = 1.68329e-17, No Iterations 1
smoothSolver:  Solving for e, Initial residual = 0.000905335, Final residual = 1.11908e-16, No Iterations 7
smoothSolver:  Solving for p, Initial residual = 0.000298637, Final residual = 7.17733e-17, No Iterations 6
diagonal:  Solving for rho, Initial residual = 0, Final residual = 0, No Iterations 0
time step continuity errors : sum local = 1.5299e-16, global = -5.02547e-17, cumulative = 1.37303e-15
PIMPLE: iteration 2
smoothSolver:  Solving for Ux, Initial residual = 0.00119549, Final residual = 1.33222e-17, No Iterations 1
smoothSolver:  Solving for e, Initial residual = 0.000194415, Final residual = 5.29227e-16, No Iterations 6
smoothSolver:  Solving for p, Initial residual = 3.76532e-05, Final residual = 3.16396e-16, No Iterations 5
diagonal:  Solving for rho, Initial residual = 0, Final residual = 0, No Iterations 0
time step continuity errors : sum local = 5.89033e-16, global = 2.3265e-16, cumulative = 1.60568e-15
PIMPLE: iteration 3
smoothSolver:  Solving for Ux, Initial residual = 0.000547697, Final residual = 1.39849e-17, No Iterations 1
smoothSolver:  Solving for e, Initial residual = 0.000117454, Final residual = 6.05728e-17, No Iterations 7
smoothSolver:  Solving for p, Initial residual = 1.2881e-05, Final residual = 1.23057e-16, No Iterations 5
diagonal:  Solving for rho, Initial residual = 0, Final residual = 0, No Iterations 0
time step continuity errors : sum local = 2.38536e-16, global = 7.54562e-17, cumulative = 1.68113e-15
ExecutionTime = 0.09 s  ClockTime = 0 s

Courant Number mean: 0.00211524 max: 0.30069
Time = 0.0001

PIMPLE: iteration 1
diagonal:  Solving for rho, Initial residual = 0, Final residual = 0, No Iterations 0
smoothSolver:  Solving for Ux, Initial residual = 0.0196748, Final residual = 1.61582e-17, No Iterations 1
smoothSolver:  Solving for e, Initial residual = 0.000917821, Final residual = 1.2799e-16, No Iterations 7
smoothSolver:  Solving for p, Initial residual = 0.000292876, Final residual = 6.94578e-17, No Iterations 6
diagonal:  Solving for rho, Initial residual = 0, Final residual = 0, No Iterations 0
time step continuity errors : sum local = 1.46114e-16, global = -3.95706e-17, cumulative = 1.64156e-15
PIMPLE: iteration 2
smoothSolver:  Solving for Ux, Initial residual = 0.00100843, Final residual = 1.61784e-17, No Iterations 1
smoothSolver:  Solving for e, Initial residual = 0.000196996, Final residual = 6.07025e-16, No Iterations 6
smoothSolver:  Solving for p, Initial residual = 3.57125e-05, Final residual = 3.09519e-16, No Iterations 5
diagonal:  Solving for rho, Initial residual = 0, Final residual = 0, No Iterations 0
time step continuity errors : sum local = 5.7506e-16, global = 2.11802e-16, cumulative = 1.85336e-15
PIMPLE: iteration 3
smoothSolver:  Solving for Ux, Initial residual = 0.00045494, Final residual = 6.88675e-18, No Iterations 1
smoothSolver:  Solving for e, Initial residual = 0.000108946, Final residual = 9.81261e-17, No Iterations 7
smoothSolver:  Solving for p, Initial residual = 1.21406e-05, Final residual = 1.19907e-16, No Iterations 5
diagonal:  Solving for rho, Initial residual = 0, Final residual = 0, No Iterations 0
time step continuity errors : sum local = 2.30078e-16, global = 8.60908e-17, cumulative = 1.93945e-15
ExecutionTime = 0.09 s  ClockTime = 0 s

Courant Number mean: 0.00233335 max: 0.302484
Time = 0.00011

PIMPLE: iteration 1
diagonal:  Solving for rho, Initial residual = 0, Final residual = 0, No Iterations 0
smoothSolver:  Solving for Ux, Initial residual = 0.017721, Final residual = 1.40102e-17, No Iterations 1
smoothSolver:  Solving for e, Initial residual = 0.000942061, Final residual = 2.13772e-16, No Iterations 7
smoothSolver:  Solving for p, Initial residual = 0.000290092, Final residual = 6.89463e-17, No Iterations 6
diagonal:  Solving for rho, Initial residual = 0, Final residual = 0, No Iterations 0
time step continuity errors : sum local = 1.44507e-16, global = -4.02878e-17, cumulative = 1.89917e-15
PIMPLE: iteration 2
smoothSolver:  Solving for Ux, Initial residual = 0.000868767, Final residual = 1.5647e-17, No Iterations 1
smoothSolver:  Solving for e, Initial residual = 0.000197667, Final residual = 5.35536e-17, No Iterations 7
smoothSolver:  Solving for p, Initial residual = 3.46137e-05, Final residual = 3.10473e-16, No Iterations 5
diagonal:  Solving for rho, Initial residual = 0, Final residual = 0, No Iterations 0
time step continuity errors : sum local = 5.76271e-16, global = 1.912e-16, cumulative = 2.09037e-15
PIMPLE: iteration 3
smoothSolver:  Solving for Ux, Initial residual = 0.000395246, Final residual = 1.34775e-17, No Iterations 1
smoothSolver:  Solving for e, Initial residual = 0.000103522, Final residual = 7.40252e-17, No Iterations 7
smoothSolver:  Solving for p, Initial residual = 1.22248e-05, Final residual = 1.18339e-16, No Iterations 5
diagonal:  Solving for rho, Initial residual = 0, Final residual = 0, No Iterations 0
time step continuity errors : sum local = 2.28891e-16, global = 7.34776e-17, cumulative = 2.16384e-15
ExecutionTime = 0.1 s  ClockTime = 0 s

Courant Number mean: 0.0025512 max: 0.301063
Time = 0.00012

PIMPLE: iteration 1
diagonal:  Solving for rho, Initial residual = 0, Final residual = 0, No Iterations 0
smoothSolver:  Solving for Ux, Initial residual = 0.0161679, Final residual = 1.61497e-17, No Iterations 1
smoothSolver:  Solving for e, Initial residual = 0.000970274, Final residual = 2.41793e-16, No Iterations 7
smoothSolver:  Solving for p, Initial residual = 0.000289441, Final residual = 6.8591e-17, No Iterations 6
diagonal:  Solving for rho, Initial residual = 0, Final residual = 0, No Iterations 0
time step continuity errors : sum local = 1.49379e-16, global = -3.98179e-17, cumulative = 2.12403e-15
PIMPLE: iteration 2
smoothSolver:  Solving for Ux, Initial residual = 0.000768508, Final residual = 1.13346e-17, No Iterations 1
smoothSolver:  Solving for e, Initial residual = 0.000178423, Final residual = 6.82087e-16, No Iterations 6
smoothSolver:  Solving for p, Initial residual = 3.32432e-05, Final residual = 3.04117e-16, No Iterations 5
diagonal:  Solving for rho, Initial residual = 0, Final residual = 0, No Iterations 0
time step continuity errors : sum local = 5.62076e-16, global = 1.76361e-16, cumulative = 2.30039e-15
PIMPLE: iteration 3
smoothSolver:  Solving for Ux, Initial residual = 0.000339708, Final residual = 1.39066e-17, No Iterations 1
smoothSolver:  Solving for e, Initial residual = 9.63033e-05, Final residual = 5.33279e-17, No Iterations 7
smoothSolver:  Solving for p, Initial residual = 1.12617e-05, Final residual = 1.19546e-16, No Iterations 5
diagonal:  Solving for rho, Initial residual = 0, Final residual = 0, No Iterations 0
time step continuity errors : sum local = 2.32057e-16, global = 7.82756e-17, cumulative = 2.37866e-15
ExecutionTime = 0.1 s  ClockTime = 0 s

Courant Number mean: 0.0027688 max: 0.301894
Time = 0.00013

PIMPLE: iteration 1
diagonal:  Solving for rho, Initial residual = 0, Final residual = 0, No Iterations 0
smoothSolver:  Solving for Ux, Initial residual = 0.0147769, Final residual = 1.19364e-17, No Iterations 1
smoothSolver:  Solving for e, Initial residual = 0.000993215, Final residual = 2.34495e-16, No Iterations 7
smoothSolver:  Solving for p, Initial residual = 0.000289611, Final residual = 6.65221e-17, No Iterations 6
diagonal:  Solving for rho, Initial residual = 0, Final residual = 0, No Iterations 0
time step continuity errors : sum local = 1.40426e-16, global = -4.24889e-17, cumulative = 2.33617e-15
PIMPLE: iteration 2
smoothSolver:  Solving for Ux, Initial residual = 0.000663264, Final residual = 1.22024e-17, No Iterations 1
smoothSolver:  Solving for e, Initial residual = 0.000164191, Final residual = 8.16376e-17, No Iterations 7
smoothSolver:  Solving for p, Initial residual = 3.14729e-05, Final residual = 3.03922e-16, No Iterations 5
diagonal:  Solving for rho, Initial residual = 0, Final residual = 0, No Iterations 0
time step continuity errors : sum local = 5.62719e-16, global = 1.66073e-16, cumulative = 2.50225e-15
PIMPLE: iteration 3
smoothSolver:  Solving for Ux, Initial residual = 0.000301003, Final residual = 1.14694e-17, No Iterations 1
smoothSolver:  Solving for e, Initial residual = 9.78371e-05, Final residual = 6.75379e-17, No Iterations 7
smoothSolver:  Solving for p, Initial residual = 1.03425e-05, Final residual = 1.14149e-16, No Iterations 5
diagonal:  Solving for rho, Initial residual = 0, Final residual = 0, No Iterations 0
time step continuity errors : sum local = 2.26665e-16, global = 6.60087e-17, cumulative = 2.56825e-15
ExecutionTime = 0.1 s  ClockTime = 0 s

Courant Number mean: 0.00298628 max: 0.302371
Time = 0.00014

PIMPLE: iteration 1
diagonal:  Solving for rho, Initial residual = 0, Final residual = 0, No Iterations 0
smoothSolver:  Solving for Ux, Initial residual = 0.013708, Final residual = 1.56511e-17, No Iterations 1
smoothSolver:  Solving for e, Initial residual = 0.00102283, Final residual = 3.20405e-16, No Iterations 7
smoothSolver:  Solving for p, Initial residual = 0.000288226, Final residual = 6.87709e-17, No Iterations 6
diagonal:  Solving for rho, Initial residual = 0, Final residual = 0, No Iterations 0
time step continuity errors : sum local = 1.44185e-16, global = -3.65533e-17, cumulative = 2.5317e-15
PIMPLE: iteration 2
smoothSolver:  Solving for Ux, Initial residual = 0.000609907, Final residual = 1.45175e-17, No Iterations 1
smoothSolver:  Solving for e, Initial residual = 0.000168593, Final residual = 6.01411e-17, No Iterations 7
smoothSolver:  Solving for p, Initial residual = 3.20322e-05, Final residual = 3.11329e-16, No Iterations 5
diagonal:  Solving for rho, Initial residual = 0, Final residual = 0, No Iterations 0
time step continuity errors : sum local = 5.7637e-16, global = 1.41737e-16, cumulative = 2.67344e-15
PIMPLE: iteration 3
smoothSolver:  Solving for Ux, Initial residual = 0.000271707, Final residual = 1.48872e-17, No Iterations 1
smoothSolver:  Solving for e, Initial residual = 8.94805e-05, Final residual = 7.81661e-17, No Iterations 7
smoothSolver:  Solving for p, Initial residual = 1.03168e-05, Final residual = 1.15979e-16, No Iterations 5
diagonal:  Solving for rho, Initial residual = 0, Final residual = 0, No Iterations 0
time step continuity errors : sum local = 2.3087e-16, global = 6.02215e-17, cumulative = 2.73366e-15
ExecutionTime = 0.11 s  ClockTime = 0 s

Courant Number mean: 0.00320367 max: 0.301446
Time = 0.00015

PIMPLE: iteration 1
diagonal:  Solving for rho, Initial residual = 0, Final residual = 0, No Iterations 0
smoothSolver:  Solving for Ux, Initial residual = 0.0126909, Final residual = 1.64821e-17, No Iterations 1
smoothSolver:  Solving for e, Initial residual = 0.00101962, Final residual = 3.50287e-16, No Iterations 7
smoothSolver:  Solving for p, Initial residual = 0.000288261, Final residual = 6.71751e-17, No Iterations 6
diagonal:  Solving for rho, Initial residual = 0, Final residual = 0, No Iterations 0
time step continuity errors : sum local = 1.41094e-16, global = -2.72295e-17, cumulative = 2.70643e-15
PIMPLE: iteration 2
smoothSolver:  Solving for Ux, Initial residual = 0.000543036, Final residual = 1.27097e-17, No Iterations 1
smoothSolver:  Solving for e, Initial residual = 0.000170818, Final residual = 7.41696e-17, No Iterations 7
smoothSolver:  Solving for p, Initial residual = 3.26458e-05, Final residual = 3.05209e-16, No Iterations 5
diagonal:  Solving for rho, Initial residual = 0, Final residual = 0, No Iterations 0
time step continuity errors : sum local = 5.62669e-16, global = 1.29074e-16, cumulative = 2.8355e-15
PIMPLE: iteration 3
smoothSolver:  Solving for Ux, Initial residual = 0.000249086, Final residual = 1.26437e-17, No Iterations 1
smoothSolver:  Solving for e, Initial residual = 0.00010071, Final residual = 6.93821e-17, No Iterations 7
smoothSolver:  Solving for p, Initial residual = 1.10875e-05, Final residual = 1.13254e-16, No Iterations 5
diagonal:  Solving for rho, Initial residual = 0, Final residual = 0, No Iterations 0
time step continuity errors : sum local = 2.17045e-16, global = 6.77646e-17, cumulative = 2.90327e-15
ExecutionTime = 0.11 s  ClockTime = 0 s

Courant Number mean: 0.0034211 max: 0.300401
Time = 0.00016

PIMPLE: iteration 1
diagonal:  Solving for rho, Initial residual = 0, Final residual = 0, No Iterations 0
smoothSolver:  Solving for Ux, Initial residual = 0.0118371, Final residual = 1.74674e-17, No Iterations 1
smoothSolver:  Solving for e, Initial residual = 0.00104051, Final residual = 3.75347e-16, No Iterations 7
smoothSolver:  Solving for p, Initial residual = 0.000291915, Final residual = 6.55495e-17, No Iterations 6
diagonal:  Solving for rho, Initial residual = 0, Final residual = 0, No Iterations 0
time step continuity errors : sum local = 1.40624e-16, global = -3.2349e-17, cumulative = 2.87092e-15
PIMPLE: iteration 2
smoothSolver:  Solving for Ux, Initial residual = 0.000505866, Final residual = 1.68576e-17, No Iterations 1
smoothSolver:  Solving for e, Initial residual = 0.000164603, Final residual = 6.27845e-17, No Iterations 7
smoothSolver:  Solving for p, Initial residual = 3.10064e-05, Final residual = 3.12037e-16, No Iterations 5
diagonal:  Solving for rho, Initial residual = 0, Final residual = 0, No Iterations 0
time step continuity errors : sum local = 5.72092e-16, global = 1.19701e-16, cumulative = 2.99062e-15
PIMPLE: iteration 3
smoothSolver:  Solving for Ux, Initial residual = 0.000225877, Final residual = 1.54323e-17, No Iterations 1
smoothSolver:  Solving for e, Initial residual = 8.23579e-05, Final residual = 7.54759e-17, No Iterations 7
smoothSolver:  Solving for p, Initial residual = 9.57022e-06, Final residual = 1.1263e-16, No Iterations 5
diagonal:  Solving for rho, Initial residual = 0, Final residual = 0, No Iterations 0
time step continuity errors : sum local = 2.20161e-16, global = 6.18785e-17, cumulative = 3.0525e-15
ExecutionTime = 0.12 s  ClockTime = 0 s

Courant Number mean: 0.00363855 max: 0.300246
Time = 0.00017

PIMPLE: iteration 1
diagonal:  Solving for rho, Initial residual = 0, Final residual = 0, No Iterations 0
smoothSolver:  Solving for Ux, Initial residual = 0.0110727, Final residual = 1.34598e-17, No Iterations 1
smoothSolver:  Solving for e, Initial residual = 0.00103116, Final residual = 3.68533e-16, No Iterations 7
smoothSolver:  Solving for p, Initial residual = 0.00029218, Final residual = 6.41479e-17, No Iterations 6
diagonal:  Solving for rho, Initial residual = 0, Final residual = 0, No Iterations 0
time step continuity errors : sum local = 1.37483e-16, global = -2.90597e-17, cumulative = 3.02344e-15
PIMPLE: iteration 2
smoothSolver:  Solving for Ux, Initial residual = 0.000464373, Final residual = 1.56081e-17, No Iterations 1
smoothSolver:  Solving for e, Initial residual = 0.000155077, Final residual = 7.12936e-17, No Iterations 7
smoothSolver:  Solving for p, Initial residual = 2.91189e-05, Final residual = 2.99986e-16, No Iterations 5
diagonal:  Solving for rho, Initial residual = 0, Final residual = 0, No Iterations 0
time step continuity errors : sum local = 5.50823e-16, global = 1.07632e-16, cumulative = 3.13107e-15
PIMPLE: iteration 3
smoothSolver:  Solving for Ux, Initial residual = 0.000207307, Final residual = 1.53478e-17, No Iterations 1
smoothSolver:  Solving for e, Initial residual = 8.83017e-05, Final residual = 7.09452e-17, No Iterations 7
smoothSolver:  Solving for p, Initial residual = 9.33281e-06, Final residual = 1.09124e-16, No Iterations 5
diagonal:  Solving for rho, Initial residual = 0, Final residual = 0, No Iterations 0
time step continuity errors : sum local = 2.17069e-16, global = 5.74021e-17, cumulative = 3.18847e-15
ExecutionTime = 0.12 s  ClockTime = 0 s

Courant Number mean: 0.00385606 max: 0.299375
Time = 0.00018

PIMPLE: iteration 1
diagonal:  Solving for rho, Initial residual = 0, Final residual = 0, No Iterations 0
smoothSolver:  Solving for Ux, Initial residual = 0.0104159, Final residual = 1.647e-17, No Iterations 1
smoothSolver:  Solving for e, Initial residual = 0.00104597, Final residual = 4.59691e-16, No Iterations 7
smoothSolver:  Solving for p, Initial residual = 0.000290784, Final residual = 6.51927e-17, No Iterations 6
diagonal:  Solving for rho, Initial residual = 0, Final residual = 0, No Iterations 0
time step continuity errors : sum local = 1.41415e-16, global = -3.22995e-17, cumulative = 3.15618e-15
PIMPLE: iteration 2
smoothSolver:  Solving for Ux, Initial residual = 0.000424214, Final residual = 1.31163e-17, No Iterations 1
smoothSolver:  Solving for e, Initial residual = 0.00016538, Final residual = 5.27641e-17, No Iterations 7
smoothSolver:  Solving for p, Initial residual = 3.10855e-05, Final residual = 3.09655e-16, No Iterations 5
diagonal:  Solving for rho, Initial residual = 0, Final residual = 0, No Iterations 0
time step continuity errors : sum local = 5.72586e-16, global = 9.64039e-17, cumulative = 3.25258e-15
PIMPLE: iteration 3
smoothSolver:  Solving for Ux, Initial residual = 0.00019326, Final residual = 1.3255e-17, No Iterations 1
smoothSolver:  Solving for e, Initial residual = 8.07296e-05, Final residual = 6.55297e-17, No Iterations 7
smoothSolver:  Solving for p, Initial residual = 8.47454e-06, Final residual = 1.05584e-16, No Iterations 5
diagonal:  Solving for rho, Initial residual = 0, Final residual = 0, No Iterations 0
time step continuity errors : sum local = 2.09427e-16, global = 4.96611e-17, cumulative = 3.30224e-15
ExecutionTime = 0.13 s  ClockTime = 0 s

Courant Number mean: 0.00407365 max: 0.298681
Time = 0.00019

PIMPLE: iteration 1
diagonal:  Solving for rho, Initial residual = 0, Final residual = 0, No Iterations 0
smoothSolver:  Solving for Ux, Initial residual = 0.00982835, Final residual = 1.83433e-17, No Iterations 1
smoothSolver:  Solving for e, Initial residual = 0.00104779, Final residual = 4.69781e-16, No Iterations 7
smoothSolver:  Solving for p, Initial residual = 0.000290638, Final residual = 6.54425e-17, No Iterations 6
diagonal:  Solving for rho, Initial residual = 0, Final residual = 0, No Iterations 0
time step continuity errors : sum local = 1.45521e-16, global = -3.38329e-17, cumulative = 3.26841e-15
PIMPLE: iteration 2
smoothSolver:  Solving for Ux, Initial residual = 0.000400035, Final residual = 1.07042e-17, No Iterations 1
smoothSolver:  Solving for e, Initial residual = 0.000147229, Final residual = 6.94064e-17, No Iterations 7
smoothSolver:  Solving for p, Initial residual = 2.95939e-05, Final residual = 2.94353e-16, No Iterations 5
diagonal:  Solving for rho, Initial residual = 0, Final residual = 0, No Iterations 0
time step continuity errors : sum local = 5.45802e-16, global = 8.92564e-17, cumulative = 3.35766e-15
PIMPLE: iteration 3
smoothSolver:  Solving for Ux, Initial residual = 0.000178219, Final residual = 1.01875e-17, No Iterations 1
smoothSolver:  Solving for e, Initial residual = 8.67623e-05, Final residual = 6.88099e-17, No Iterations 7
smoothSolver:  Solving for p, Initial residual = 9.54655e-06, Final residual = 1.09146e-16, No Iterations 5
diagonal:  Solving for rho, Initial residual = 0, Final residual = 0, No Iterations 0
time step continuity errors : sum local = 2.17069e-16, global = 4.97847e-17, cumulative = 3.40745e-15
ExecutionTime = 0.13 s  ClockTime = 0 s

Courant Number mean: 0.00429139 max: 0.298204
Time = 0.0002

PIMPLE: iteration 1
diagonal:  Solving for rho, Initial residual = 0, Final residual = 0, No Iterations 0
smoothSolver:  Solving for Ux, Initial residual = 0.00931039, Final residual = 1.35544e-17, No Iterations 1
smoothSolver:  Solving for e, Initial residual = 0.00105668, Final residual = 5.10143e-16, No Iterations 7
smoothSolver:  Solving for p, Initial residual = 0.000291508, Final residual = 6.64282e-17, No Iterations 6
diagonal:  Solving for rho, Initial residual = 0, Final residual = 0, No Iterations 0
time step continuity errors : sum local = 1.44581e-16, global = -3.26457e-17, cumulative = 3.3748e-15
PIMPLE: iteration 2
smoothSolver:  Solving for Ux, Initial residual = 0.000364879, Final residual = 1.42912e-17, No Iterations 1
smoothSolver:  Solving for e, Initial residual = 0.000156387, Final residual = 5.48014e-17, No Iterations 7
smoothSolver:  Solving for p, Initial residual = 2.97263e-05, Final residual = 3.12181e-16, No Iterations 5
diagonal:  Solving for rho, Initial residual = 0, Final residual = 0, No Iterations 0
time step continuity errors : sum local = 5.78398e-16, global = 7.52583e-17, cumulative = 3.45006e-15
PIMPLE: iteration 3
smoothSolver:  Solving for Ux, Initial residual = 0.000164685, Final residual = 1.47978e-17, No Iterations 1
smoothSolver:  Solving for e, Initial residual = 7.88449e-05, Final residual = 5.96499e-17, No Iterations 7
smoothSolver:  Solving for p, Initial residual = 8.77205e-06, Final residual = 1.05861e-16, No Iterations 5
diagonal:  Solving for rho, Initial residual = 0, Final residual = 0, No Iterations 0
time step continuity errors : sum local = 2.16031e-16, global = 4.50363e-17, cumulative = 3.4951e-15
ExecutionTime = 0.14 s  ClockTime = 0 s

Courant Number mean: 0.00450926 max: 0.297573
Time = 0.00021

PIMPLE: iteration 1
diagonal:  Solving for rho, Initial residual = 0, Final residual = 0, No Iterations 0
smoothSolver:  Solving for Ux, Initial residual = 0.00884185, Final residual = 1.7886e-17, No Iterations 1
smoothSolver:  Solving for e, Initial residual = 0.00105761, Final residual = 4.91279e-16, No Iterations 7
smoothSolver:  Solving for p, Initial residual = 0.000291704, Final residual = 6.63436e-17, No Iterations 6
diagonal:  Solving for rho, Initial residual = 0, Final residual = 0, No Iterations 0
time step continuity errors : sum local = 1.44828e-16, global = -2.94801e-17, cumulative = 3.46562e-15
PIMPLE: iteration 2
smoothSolver:  Solving for Ux, Initial residual = 0.000348232, Final residual = 1.62011e-17, No Iterations 1
smoothSolver:  Solving for e, Initial residual = 0.000144985, Final residual = 6.63865e-17, No Iterations 7
smoothSolver:  Solving for p, Initial residual = 2.7965e-05, Final residual = 2.97567e-16, No Iterations 5
diagonal:  Solving for rho, Initial residual = 0, Final residual = 0, No Iterations 0
time step continuity errors : sum local = 5.52801e-16, global = 6.63797e-17, cumulative = 3.532e-15
PIMPLE: iteration 3
smoothSolver:  Solving for Ux, Initial residual = 0.000154203, Final residual = 1.74491e-17, No Iterations 1
smoothSolver:  Solving for e, Initial residual = 7.93857e-05, Final residual = 6.5257e-17, No Iterations 7
smoothSolver:  Solving for p, Initial residual = 8.43144e-06, Final residual = 1.0782e-16, No Iterations 5
diagonal:  Solving for rho, Initial residual = 0, Final residual = 0, No Iterations 0
time step continuity errors : sum local = 2.23574e-16, global = 4.64954e-17, cumulative = 3.57849e-15
ExecutionTime = 0.14 s  ClockTime = 0 s

Courant Number mean: 0.00472723 max: 0.297337
Time = 0.00022

PIMPLE: iteration 1
diagonal:  Solving for rho, Initial residual = 0, Final residual = 0, No Iterations 0
smoothSolver:  Solving for Ux, Initial residual = 0.00842827, Final residual = 9.90323e-18, No Iterations 1
smoothSolver:  Solving for e, Initial residual = 0.00106133, Final residual = 5.53416e-16, No Iterations 7
smoothSolver:  Solving for p, Initial residual = 0.000290638, Final residual = 6.69572e-17, No Iterations 6
diagonal:  Solving for rho, Initial residual = 0, Final residual = 0, No Iterations 0
time step continuity errors : sum local = 1.48291e-16, global = -2.77489e-17, cumulative = 3.55074e-15
PIMPLE: iteration 2
smoothSolver:  Solving for Ux, Initial residual = 0.000317971, Final residual = 1.63692e-17, No Iterations 1
smoothSolver:  Solving for e, Initial residual = 0.000149318, Final residual = 4.97342e-17, No Iterations 7
smoothSolver:  Solving for p, Initial residual = 2.84135e-05, Final residual = 3.0565e-16, No Iterations 5
diagonal:  Solving for rho, Initial residual = 0, Final residual = 0, No Iterations 0
time step continuity errors : sum local = 5.71721e-16, global = 6.32882e-17, cumulative = 3.61403e-15
PIMPLE: iteration 3
smoothSolver:  Solving for Ux, Initial residual = 0.000144572, Final residual = 1.23201e-17, No Iterations 1
smoothSolver:  Solving for e, Initial residual = 7.17265e-05, Final residual = 5.24887e-17, No Iterations 7
smoothSolver:  Solving for p, Initial residual = 8.16737e-06, Final residual = 1.04838e-16, No Iterations 5
diagonal:  Solving for rho, Initial residual = 0, Final residual = 0, No Iterations 0
time step continuity errors : sum local = 2.05025e-16, global = 4.239e-17, cumulative = 3.65642e-15
ExecutionTime = 0.15 s  ClockTime = 0 s

Courant Number mean: 0.00494531 max: 0.296834
Time = 0.00023

PIMPLE: iteration 1
diagonal:  Solving for rho, Initial residual = 0, Final residual = 0, No Iterations 0
smoothSolver:  Solving for Ux, Initial residual = 0.00806099, Final residual = 1.25852e-17, No Iterations 1
smoothSolver:  Solving for e, Initial residual = 0.00107097, Final residual = 5.57808e-16, No Iterations 7
smoothSolver:  Solving for p, Initial residual = 0.000290992, Final residual = 6.69516e-17, No Iterations 6
diagonal:  Solving for rho, Initial residual = 0, Final residual = 0, No Iterations 0
time step continuity errors : sum local = 1.42256e-16, global = -3.61576e-17, cumulative = 3.62026e-15
PIMPLE: iteration 2
smoothSolver:  Solving for Ux, Initial residual = 0.000304202, Final residual = 1.24713e-17, No Iterations 1
smoothSolver:  Solving for e, Initial residual = 0.000141069, Final residual = 6.41766e-17, No Iterations 7
smoothSolver:  Solving for p, Initial residual = 2.73063e-05, Final residual = 3.02317e-16, No Iterations 5
diagonal:  Solving for rho, Initial residual = 0, Final residual = 0, No Iterations 0
time step continuity errors : sum local = 5.56511e-16, global = 4.99084e-17, cumulative = 3.67017e-15
PIMPLE: iteration 3
smoothSolver:  Solving for Ux, Initial residual = 0.000135434, Final residual = 1.6161e-17, No Iterations 1
smoothSolver:  Solving for e, Initial residual = 7.74515e-05, Final residual = 6.10902e-17, No Iterations 7
smoothSolver:  Solving for p, Initial residual = 8.45869e-06, Final residual = 1.05193e-16, No Iterations 5
diagonal:  Solving for rho, Initial residual = 0, Final residual = 0, No Iterations 0
time step continuity errors : sum local = 2.08488e-16, global = 3.69985e-17, cumulative = 3.70717e-15
ExecutionTime = 0.15 s  ClockTime = 0 s

Courant Number mean: 0.00516349 max: 0.296689
Time = 0.00024

PIMPLE: iteration 1
diagonal:  Solving for rho, Initial residual = 0, Final residual = 0, No Iterations 0
smoothSolver:  Solving for Ux, Initial residual = 0.00771078, Final residual = 1.78641e-17, No Iterations 1
smoothSolver:  Solving for e, Initial residual = 0.0010742, Final residual = 5.93189e-16, No Iterations 7
smoothSolver:  Solving for p, Initial residual = 0.000291091, Final residual = 6.43649e-17, No Iterations 6
diagonal:  Solving for rho, Initial residual = 0, Final residual = 0, No Iterations 0
time step continuity errors : sum local = 1.32413e-16, global = -3.78394e-17, cumulative = 3.66933e-15
PIMPLE: iteration 2
smoothSolver:  Solving for Ux, Initial residual = 0.000284952, Final residual = 1.77433e-17, No Iterations 1
smoothSolver:  Solving for e, Initial residual = 0.000145857, Final residual = 5.37311e-17, No Iterations 7
smoothSolver:  Solving for p, Initial residual = 2.71947e-05, Final residual = 2.98024e-16, No Iterations 5
diagonal:  Solving for rho, Initial residual = 0, Final residual = 0, No Iterations 0
time step continuity errors : sum local = 5.46223e-16, global = 5.28762e-17, cumulative = 3.72221e-15
PIMPLE: iteration 3
smoothSolver:  Solving for Ux, Initial residual = 0.0001284, Final residual = 1.52833e-17, No Iterations 1
smoothSolver:  Solving for e, Initial residual = 7.21651e-05, Final residual = 5.30083e-17, No Iterations 7
smoothSolver:  Solving for p, Initial residual = 8.53231e-06, Final residual = 1.01788e-16, No Iterations 5
diagonal:  Solving for rho, Initial residual = 0, Final residual = 0, No Iterations 0
time step continuity errors : sum local = 1.96072e-16, global = 3.78394e-17, cumulative = 3.76005e-15
ExecutionTime = 0.16 s  ClockTime = 0 s

Courant Number mean: 0.00538175 max: 0.296333
Time = 0.00025

PIMPLE: iteration 1
diagonal:  Solving for rho, Initial residual = 0, Final residual = 0, No Iterations 0
smoothSolver:  Solving for Ux, Initial residual = 0.00740482, Final residual = 1.59801e-17, No Iterations 1
smoothSolver:  Solving for e, Initial residual = 0.00108387, Final residual = 5.63016e-16, No Iterations 7
smoothSolver:  Solving for p, Initial residual = 0.000291557, Final residual = 6.50323e-17, No Iterations 6
diagonal:  Solving for rho, Initial residual = 0, Final residual = 0, No Iterations 0
time step continuity errors : sum local = 1.47079e-16, global = -2.95048e-17, cumulative = 3.73054e-15
PIMPLE: iteration 2
smoothSolver:  Solving for Ux, Initial residual = 0.000270251, Final residual = 1.53617e-17, No Iterations 1
smoothSolver:  Solving for e, Initial residual = 0.000142835, Final residual = 6.23579e-17, No Iterations 7
smoothSolver:  Solving for p, Initial residual = 2.77133e-05, Final residual = 3.01774e-16, No Iterations 5
diagonal:  Solving for rho, Initial residual = 0, Final residual = 0, No Iterations 0
time step continuity errors : sum local = 5.58292e-16, global = 3.28436e-17, cumulative = 3.76339e-15
PIMPLE: iteration 3
smoothSolver:  Solving for Ux, Initial residual = 0.000121685, Final residual = 1.59276e-17, No Iterations 1
smoothSolver:  Solving for e, Initial residual = 7.18236e-05, Final residual = 5.75655e-17, No Iterations 7
smoothSolver:  Solving for p, Initial residual = 7.34291e-06, Final residual = 1.0314e-16, No Iterations 5
diagonal:  Solving for rho, Initial residual = 0, Final residual = 0, No Iterations 0
time step continuity errors : sum local = 2.03937e-16, global = 3.5663e-17, cumulative = 3.79905e-15
ExecutionTime = 0.16 s  ClockTime = 0 s

Courant Number mean: 0.00560009 max: 0.296177
Time = 0.00026

PIMPLE: iteration 1
diagonal:  Solving for rho, Initial residual = 0, Final residual = 0, No Iterations 0
smoothSolver:  Solving for Ux, Initial residual = 0.00711884, Final residual = 1.18495e-17, No Iterations 1
smoothSolver:  Solving for e, Initial residual = 0.00108202, Final residual = 6.06731e-16, No Iterations 7
smoothSolver:  Solving for p, Initial residual = 0.000290794, Final residual = 6.30838e-17, No Iterations 6
diagonal:  Solving for rho, Initial residual = 0, Final residual = 0, No Iterations 0
time step continuity errors : sum local = 1.36494e-16, global = -3.69243e-17, cumulative = 3.76212e-15
PIMPLE: iteration 2
smoothSolver:  Solving for Ux, Initial residual = 0.000256219, Final residual = 7.55603e-18, No Iterations 1
smoothSolver:  Solving for e, Initial residual = 0.000140151, Final residual = 5.07748e-17, No Iterations 7
smoothSolver:  Solving for p, Initial residual = 2.66053e-05, Final residual = 2.9038e-16, No Iterations 5
diagonal:  Solving for rho, Initial residual = 0, Final residual = 0, No Iterations 0
time step continuity errors : sum local = 5.35118e-16, global = 3.09393e-17, cumulative = 3.79306e-15
PIMPLE: iteration 3
smoothSolver:  Solving for Ux, Initial residual = 0.000116079, Final residual = 1.57148e-17, No Iterations 1
smoothSolver:  Solving for e, Initial residual = 6.50033e-05, Final residual = 4.86899e-17, No Iterations 7
smoothSolver:  Solving for p, Initial residual = 7.92629e-06, Final residual = 1.05142e-16, No Iterations 5
diagonal:  Solving for rho, Initial residual = 0, Final residual = 0, No Iterations 0
time step continuity errors : sum local = 2.00944e-16, global = 3.5292e-17, cumulative = 3.82836e-15
ExecutionTime = 0.17 s  ClockTime = 0 s

Courant Number mean: 0.00581851 max: 0.295934
Time = 0.00027

PIMPLE: iteration 1
diagonal:  Solving for rho, Initial residual = 0, Final residual = 0, No Iterations 0
smoothSolver:  Solving for Ux, Initial residual = 0.00685588, Final residual = 1.52664e-17, No Iterations 1
smoothSolver:  Solving for e, Initial residual = 0.00108612, Final residual = 6.18713e-16, No Iterations 7
smoothSolver:  Solving for p, Initial residual = 0.000290546, Final residual = 6.54921e-17, No Iterations 6
diagonal:  Solving for rho, Initial residual = 0, Final residual = 0, No Iterations 0
time step continuity errors : sum local = 1.38497e-16, global = -3.22006e-17, cumulative = 3.79616e-15
PIMPLE: iteration 2
smoothSolver:  Solving for Ux, Initial residual = 0.000239653, Final residual = 1.46883e-17, No Iterations 1
smoothSolver:  Solving for e, Initial residual = 0.00014306, Final residual = 6.15921e-17, No Iterations 7
smoothSolver:  Solving for p, Initial residual = 2.77629e-05, Final residual = 3.04132e-16, No Iterations 5
diagonal:  Solving for rho, Initial residual = 0, Final residual = 0, No Iterations 0
time step continuity errors : sum local = 5.55843e-16, global = 3.28683e-17, cumulative = 3.82902e-15
PIMPLE: iteration 3
smoothSolver:  Solving for Ux, Initial residual = 0.000110351, Final residual = 1.48916e-17, No Iterations 1
smoothSolver:  Solving for e, Initial residual = 7.16581e-05, Final residual = 5.51834e-17, No Iterations 7
smoothSolver:  Solving for p, Initial residual = 7.37806e-06, Final residual = 9.93853e-17, No Iterations 5
diagonal:  Solving for rho, Initial residual = 0, Final residual = 0, No Iterations 0
time step continuity errors : sum local = 1.96567e-16, global = 3.57125e-17, cumulative = 3.86474e-15
ExecutionTime = 0.17 s  ClockTime = 0 s

Courant Number mean: 0.00603701 max: 0.29573
Time = 0.00028

PIMPLE: iteration 1
diagonal:  Solving for rho, Initial residual = 0, Final residual = 0, No Iterations 0
smoothSolver:  Solving for Ux, Initial residual = 0.00660733, Final residual = 1.48704e-17, No Iterations 1
smoothSolver:  Solving for e, Initial residual = 0.00107962, Final residual = 6.08759e-16, No Iterations 7
smoothSolver:  Solving for p, Initial residual = 0.000290018, Final residual = 6.66976e-17, No Iterations 6
diagonal:  Solving for rho, Initial residual = 0, Final residual = 0, No Iterations 0
time step continuity errors : sum local = 1.49997e-16, global = -4.16728e-17, cumulative = 3.82306e-15
PIMPLE: iteration 2
smoothSolver:  Solving for Ux, Initial residual = 0.000231654, Final residual = 1.37994e-17, No Iterations 1
smoothSolver:  Solving for e, Initial residual = 0.000132849, Final residual = 6.16054e-17, No Iterations 7
smoothSolver:  Solving for p, Initial residual = 2.54108e-05, Final residual = 2.82943e-16, No Iterations 5
diagonal:  Solving for rho, Initial residual = 0, Final residual = 0, No Iterations 0
time step continuity errors : sum local = 5.25151e-16, global = 2.59187e-17, cumulative = 3.84898e-15
PIMPLE: iteration 3
smoothSolver:  Solving for Ux, Initial residual = 0.000105173, Final residual = 1.51795e-17, No Iterations 1
smoothSolver:  Solving for e, Initial residual = 7.12936e-05, Final residual = 5.00134e-17, No Iterations 7
smoothSolver:  Solving for p, Initial residual = 9.07366e-06, Final residual = 1.06203e-16, No Iterations 5
diagonal:  Solving for rho, Initial residual = 0, Final residual = 0, No Iterations 0
time step continuity errors : sum local = 2.13508e-16, global = 2.93564e-17, cumulative = 3.87834e-15
ExecutionTime = 0.18 s  ClockTime = 0 s

Courant Number mean: 0.00625561 max: 0.295582
Time = 0.00029

PIMPLE: iteration 1
diagonal:  Solving for rho, Initial residual = 0, Final residual = 0, No Iterations 0
smoothSolver:  Solving for Ux, Initial residual = 0.00637787, Final residual = 1.31891e-17, No Iterations 1
smoothSolver:  Solving for e, Initial residual = 0.00108379, Final residual = 6.16302e-16, No Iterations 7
smoothSolver:  Solving for p, Initial residual = 0.000290511, Final residual = 6.3694e-17, No Iterations 6
diagonal:  Solving for rho, Initial residual = 0, Final residual = 0, No Iterations 0
time step continuity errors : sum local = 1.40055e-16, global = -3.45501e-17, cumulative = 3.84379e-15
PIMPLE: iteration 2
smoothSolver:  Solving for Ux, Initial residual = 0.000215607, Final residual = 1.4927e-17, No Iterations 1
smoothSolver:  Solving for e, Initial residual = 0.00014169, Final residual = 5.94037e-17, No Iterations 7
smoothSolver:  Solving for p, Initial residual = 2.72605e-05, Final residual = 3.0204e-16, No Iterations 5
diagonal:  Solving for rho, Initial residual = 0, Final residual = 0, No Iterations 0
time step continuity errors : sum local = 5.61779e-16, global = 2.16896e-17, cumulative = 3.86548e-15
PIMPLE: iteration 3
smoothSolver:  Solving for Ux, Initial residual = 0.000100159, Final residual = 1.33963e-17, No Iterations 1
smoothSolver:  Solving for e, Initial residual = 6.61971e-05, Final residual = 7.74572e-16, No Iterations 6
smoothSolver:  Solving for p, Initial residual = 7.07122e-06, Final residual = 9.65263e-17, No Iterations 5
diagonal:  Solving for rho, Initial residual = 0, Final residual = 0, No Iterations 0
time step continuity errors : sum local = 1.90433e-16, global = 3.26952e-17, cumulative = 3.89817e-15
ExecutionTime = 0.18 s  ClockTime = 0 s

Courant Number mean: 0.00647426 max: 0.29538
Time = 0.0003

PIMPLE: iteration 1
diagonal:  Solving for rho, Initial residual = 0, Final residual = 0, No Iterations 0
smoothSolver:  Solving for Ux, Initial residual = 0.0061616, Final residual = 1.25351e-17, No Iterations 1
smoothSolver:  Solving for e, Initial residual = 0.00108316, Final residual = 6.1384e-16, No Iterations 7
smoothSolver:  Solving for p, Initial residual = 0.000290252, Final residual = 6.49778e-17, No Iterations 6
diagonal:  Solving for rho, Initial residual = 0, Final residual = 0, No Iterations 0
time step continuity errors : sum local = 1.37928e-16, global = -2.89607e-17, cumulative = 3.86921e-15
PIMPLE: iteration 2
smoothSolver:  Solving for Ux, Initial residual = 0.000211031, Final residual = 1.33403e-17, No Iterations 1
smoothSolver:  Solving for e, Initial residual = 0.000126219, Final residual = 5.73556e-17, No Iterations 7
smoothSolver:  Solving for p, Initial residual = 2.52209e-05, Final residual = 2.85401e-16, No Iterations 5
diagonal:  Solving for rho, Initial residual = 0, Final residual = 0, No Iterations 0
time step continuity errors : sum local = 5.29059e-16, global = 2.46822e-17, cumulative = 3.89389e-15
PIMPLE: iteration 3
smoothSolver:  Solving for Ux, Initial residual = 9.6222e-05, Final residual = 1.46478e-17, No Iterations 1
smoothSolver:  Solving for e, Initial residual = 6.34962e-05, Final residual = 9.35671e-16, No Iterations 6
smoothSolver:  Solving for p, Initial residual = 7.89658e-06, Final residual = 1.04766e-16, No Iterations 5
diagonal:  Solving for rho, Initial residual = 0, Final residual = 0, No Iterations 0
time step continuity errors : sum local = 2.08636e-16, global = 2.43359e-17, cumulative = 3.91823e-15
ExecutionTime = 0.19 s  ClockTime = 0 s

Courant Number mean: 0.00669297 max: 0.295206
Time = 0.00031

PIMPLE: iteration 1
diagonal:  Solving for rho, Initial residual = 0, Final residual = 0, No Iterations 0
smoothSolver:  Solving for Ux, Initial residual = 0.00596538, Final residual = 1.4058e-17, No Iterations 1
smoothSolver:  Solving for e, Initial residual = 0.00109007, Final residual = 6.61404e-16, No Iterations 7
smoothSolver:  Solving for p, Initial residual = 0.000290318, Final residual = 6.53522e-17, No Iterations 6
diagonal:  Solving for rho, Initial residual = 0, Final residual = 0, No Iterations 0
time step continuity errors : sum local = 1.41836e-16, global = -3.17801e-17, cumulative = 3.88645e-15
PIMPLE: iteration 2
smoothSolver:  Solving for Ux, Initial residual = 0.000197035, Final residual = 1.34215e-17, No Iterations 1
smoothSolver:  Solving for e, Initial residual = 0.000139301, Final residual = 6.07749e-17, No Iterations 7
smoothSolver:  Solving for p, Initial residual = 2.6858e-05, Final residual = 3.01027e-16, No Iterations 5
diagonal:  Solving for rho, Initial residual = 0, Final residual = 0, No Iterations 0
time step continuity errors : sum local = 5.51119e-16, global = 2.49789e-17, cumulative = 3.91143e-15
PIMPLE: iteration 3
smoothSolver:  Solving for Ux, Initial residual = 9.23096e-05, Final residual = 1.25821e-17, No Iterations 1
smoothSolver:  Solving for e, Initial residual = 6.33303e-05, Final residual = 6.62047e-16, No Iterations 6
smoothSolver:  Solving for p, Initial residual = 7.37785e-06, Final residual = 9.73158e-17, No Iterations 5
diagonal:  Solving for rho, Initial residual = 0, Final residual = 0, No Iterations 0
time step continuity errors : sum local = 1.92239e-16, global = 3.46985e-17, cumulative = 3.94613e-15
ExecutionTime = 0.19 s  ClockTime = 0 s

Courant Number mean: 0.00691173 max: 0.295074
Time = 0.00032

PIMPLE: iteration 1
diagonal:  Solving for rho, Initial residual = 0, Final residual = 0, No Iterations 0
smoothSolver:  Solving for Ux, Initial residual = 0.00577569, Final residual = 2.0991e-17, No Iterations 1
smoothSolver:  Solving for e, Initial residual = 0.00108987, Final residual = 6.64033e-16, No Iterations 7
smoothSolver:  Solving for p, Initial residual = 0.000290121, Final residual = 6.52762e-17, No Iterations 6
diagonal:  Solving for rho, Initial residual = 0, Final residual = 0, No Iterations 0
time step continuity errors : sum local = 1.42133e-16, global = -3.04446e-17, cumulative = 3.91568e-15
PIMPLE: iteration 2
smoothSolver:  Solving for Ux, Initial residual = 0.000192427, Final residual = 1.32054e-17, No Iterations 1
smoothSolver:  Solving for e, Initial residual = 0.000122891, Final residual = 6.28474e-17, No Iterations 7
smoothSolver:  Solving for p, Initial residual = 2.56783e-05, Final residual = 2.85521e-16, No Iterations 5
diagonal:  Solving for rho, Initial residual = 0, Final residual = 0, No Iterations 0
time step continuity errors : sum local = 5.19067e-16, global = 2.42865e-17, cumulative = 3.93997e-15
PIMPLE: iteration 3
smoothSolver:  Solving for Ux, Initial residual = 8.91517e-05, Final residual = 1.39184e-17, No Iterations 1
smoothSolver:  Solving for e, Initial residual = 7.13425e-05, Final residual = 4.97807e-17, No Iterations 7
smoothSolver:  Solving for p, Initial residual = 8.99145e-06, Final residual = 1.04889e-16, No Iterations 5
diagonal:  Solving for rho, Initial residual = 0, Final residual = 0, No Iterations 0
time step continuity errors : sum local = 2.02601e-16, global = 3.68996e-17, cumulative = 3.97687e-15
ExecutionTime = 0.2 s  ClockTime = 0 s

Courant Number mean: 0.00713055 max: 0.294962
Time = 0.00033

PIMPLE: iteration 1
diagonal:  Solving for rho, Initial residual = 0, Final residual = 0, No Iterations 0
smoothSolver:  Solving for Ux, Initial residual = 0.00560209, Final residual = 1.99294e-17, No Iterations 1
smoothSolver:  Solving for e, Initial residual = 0.00108975, Final residual = 6.60299e-16, No Iterations 7
smoothSolver:  Solving for p, Initial residual = 0.000290511, Final residual = 6.70279e-17, No Iterations 6
diagonal:  Solving for rho, Initial residual = 0, Final residual = 0, No Iterations 0
time step continuity errors : sum local = 1.42677e-16, global = -2.49542e-17, cumulative = 3.95191e-15
PIMPLE: iteration 2
smoothSolver:  Solving for Ux, Initial residual = 0.00018346, Final residual = 1.61307e-17, No Iterations 1
smoothSolver:  Solving for e, Initial residual = 0.000134201, Final residual = 6.26161e-17, No Iterations 7
smoothSolver:  Solving for p, Initial residual = 2.62416e-05, Final residual = 2.92729e-16, No Iterations 5
diagonal:  Solving for rho, Initial residual = 0, Final residual = 0, No Iterations 0
time step continuity errors : sum local = 5.41548e-16, global = 3.07909e-17, cumulative = 3.98271e-15
PIMPLE: iteration 3
smoothSolver:  Solving for Ux, Initial residual = 8.52804e-05, Final residual = 1.48028e-17, No Iterations 1
smoothSolver:  Solving for e, Initial residual = 5.85299e-05, Final residual = 6.6664e-16, No Iterations 6
smoothSolver:  Solving for p, Initial residual = 7.24655e-06, Final residual = 9.75586e-17, No Iterations 5
diagonal:  Solving for rho, Initial residual = 0, Final residual = 0, No Iterations 0
time step continuity errors : sum local = 1.9763e-16, global = 3.36103e-17, cumulative = 4.01632e-15
ExecutionTime = 0.2 s  ClockTime = 0 s

Courant Number mean: 0.00734941 max: 0.294872
Time = 0.00034

PIMPLE: iteration 1
diagonal:  Solving for rho, Initial residual = 0, Final residual = 0, No Iterations 0
smoothSolver:  Solving for Ux, Initial residual = 0.00543757, Final residual = 1.5143e-17, No Iterations 1
smoothSolver:  Solving for e, Initial residual = 0.00108826, Final residual = 6.51665e-16, No Iterations 7
smoothSolver:  Solving for p, Initial residual = 0.000290125, Final residual = 6.59712e-17, No Iterations 6
diagonal:  Solving for rho, Initial residual = 0, Final residual = 0, No Iterations 0
time step continuity errors : sum local = 1.41218e-16, global = -3.15081e-17, cumulative = 3.98481e-15
PIMPLE: iteration 2
smoothSolver:  Solving for Ux, Initial residual = 0.000176621, Final residual = 1.68009e-17, No Iterations 1
smoothSolver:  Solving for e, Initial residual = 0.000117545, Final residual = 5.80652e-17, No Iterations 7
smoothSolver:  Solving for p, Initial residual = 2.53101e-05, Final residual = 2.87865e-16, No Iterations 5
diagonal:  Solving for rho, Initial residual = 0, Final residual = 0, No Iterations 0
time step continuity errors : sum local = 5.3314e-16, global = 1.88702e-17, cumulative = 4.00368e-15
PIMPLE: iteration 3
smoothSolver:  Solving for Ux, Initial residual = 8.22712e-05, Final residual = 1.63224e-17, No Iterations 1
smoothSolver:  Solving for e, Initial residual = 6.03223e-05, Final residual = 7.91577e-16, No Iterations 6
smoothSolver:  Solving for p, Initial residual = 7.3399e-06, Final residual = 1.02535e-16, No Iterations 5
diagonal:  Solving for rho, Initial residual = 0, Final residual = 0, No Iterations 0
time step continuity errors : sum local = 1.99683e-16, global = 3.65039e-17, cumulative = 4.04018e-15
ExecutionTime = 0.2 s  ClockTime = 0 s

Courant Number mean: 0.0075683 max: 0.294791
Time = 0.00035

PIMPLE: iteration 1
diagonal:  Solving for rho, Initial residual = 0, Final residual = 0, No Iterations 0
smoothSolver:  Solving for Ux, Initial residual = 0.00528155, Final residual = 1.50318e-17, No Iterations 1
smoothSolver:  Solving for e, Initial residual = 0.00108738, Final residual = 6.93735e-16, No Iterations 7
smoothSolver:  Solving for p, Initial residual = 0.000290148, Final residual = 6.50133e-17, No Iterations 6
diagonal:  Solving for rho, Initial residual = 0, Final residual = 0, No Iterations 0
time step continuity errors : sum local = 1.30929e-16, global = -3.08651e-17, cumulative = 4.00932e-15
PIMPLE: iteration 2
smoothSolver:  Solving for Ux, Initial residual = 0.000170508, Final residual = 1.37343e-17, No Iterations 1
smoothSolver:  Solving for e, Initial residual = 0.000129279, Final residual = 6.08388e-17, No Iterations 7
smoothSolver:  Solving for p, Initial residual = 2.5266e-05, Final residual = 2.86408e-16, No Iterations 5
diagonal:  Solving for rho, Initial residual = 0, Final residual = 0, No Iterations 0
time step continuity errors : sum local = 5.18869e-16, global = 1.90928e-17, cumulative = 4.02841e-15
PIMPLE: iteration 3
smoothSolver:  Solving for Ux, Initial residual = 7.92196e-05, Final residual = 1.51257e-17, No Iterations 1
smoothSolver:  Solving for e, Initial residual = 5.76326e-05, Final residual = 6.2509e-16, No Iterations 6
smoothSolver:  Solving for p, Initial residual = 7.40314e-06, Final residual = 1.00141e-16, No Iterations 5
diagonal:  Solving for rho, Initial residual = 0, Final residual = 0, No Iterations 0
time step continuity errors : sum local = 1.91497e-16, global = 2.78231e-17, cumulative = 4.05623e-15
ExecutionTime = 0.21 s  ClockTime = 0 s

Courant Number mean: 0.00778724 max: 0.294749
Time = 0.00036

PIMPLE: iteration 1
diagonal:  Solving for rho, Initial residual = 0, Final residual = 0, No Iterations 0
smoothSolver:  Solving for Ux, Initial residual = 0.00513539, Final residual = 1.44302e-17, No Iterations 1
smoothSolver:  Solving for e, Initial residual = 0.00108707, Final residual = 6.99337e-16, No Iterations 7
smoothSolver:  Solving for p, Initial residual = 0.000289918, Final residual = 6.71902e-17, No Iterations 6
diagonal:  Solving for rho, Initial residual = 0, Final residual = 0, No Iterations 0
time step continuity errors : sum local = 1.3318e-16, global = -2.78231e-17, cumulative = 4.02841e-15
PIMPLE: iteration 2
smoothSolver:  Solving for Ux, Initial residual = 0.00016214, Final residual = 1.68201e-17, No Iterations 1
smoothSolver:  Solving for e, Initial residual = 0.000120335, Final residual = 6.44651e-17, No Iterations 7
smoothSolver:  Solving for p, Initial residual = 2.5503e-05, Final residual = 2.89137e-16, No Iterations 5
diagonal:  Solving for rho, Initial residual = 0, Final residual = 0, No Iterations 0
time step continuity errors : sum local = 5.28688e-16, global = 2.24316e-17, cumulative = 4.05084e-15
PIMPLE: iteration 3
smoothSolver:  Solving for Ux, Initial residual = 7.64264e-05, Final residual = 1.30879e-17, No Iterations 1
smoothSolver:  Solving for e, Initial residual = 6.52397e-05, Final residual = 9.21231e-16, No Iterations 6
smoothSolver:  Solving for p, Initial residual = 7.55874e-06, Final residual = 9.88291e-17, No Iterations 5
diagonal:  Solving for rho, Initial residual = 0, Final residual = 0, No Iterations 0
time step continuity errors : sum local = 1.8895e-16, global = 3.32393e-17, cumulative = 4.08408e-15
ExecutionTime = 0.21 s  ClockTime = 0 s

Courant Number mean: 0.00800622 max: 0.294738
Time = 0.00037

PIMPLE: iteration 1
diagonal:  Solving for rho, Initial residual = 0, Final residual = 0, No Iterations 0
smoothSolver:  Solving for Ux, Initial residual = 0.00499959, Final residual = 1.58542e-17, No Iterations 1
smoothSolver:  Solving for e, Initial residual = 0.0010884, Final residual = 6.92016e-16, No Iterations 7
smoothSolver:  Solving for p, Initial residual = 0.000290171, Final residual = 6.41946e-17, No Iterations 6
diagonal:  Solving for rho, Initial residual = 0, Final residual = 0, No Iterations 0
time step continuity errors : sum local = 1.41366e-16, global = -2.81446e-17, cumulative = 4.05594e-15
PIMPLE: iteration 2
smoothSolver:  Solving for Ux, Initial residual = 0.000159092, Final residual = 2.21045e-17, No Iterations 1
smoothSolver:  Solving for e, Initial residual = 0.000123294, Final residual = 6.39065e-17, No Iterations 7
smoothSolver:  Solving for p, Initial residual = 2.43831e-05, Final residual = 2.77206e-16, No Iterations 5
diagonal:  Solving for rho, Initial residual = 0, Final residual = 0, No Iterations 0
time step continuity errors : sum local = 5.10535e-16, global = 2.01068e-17, cumulative = 4.07604e-15
PIMPLE: iteration 3
smoothSolver:  Solving for Ux, Initial residual = 7.37835e-05, Final residual = 1.46615e-17, No Iterations 1
smoothSolver:  Solving for e, Initial residual = 5.39732e-05, Final residual = 6.46709e-16, No Iterations 6
smoothSolver:  Solving for p, Initial residual = 7.20048e-06, Final residual = 1.00452e-16, No Iterations 5
diagonal:  Solving for rho, Initial residual = 0, Final residual = 0, No Iterations 0
time step continuity errors : sum local = 1.95207e-16, global = 3.77652e-17, cumulative = 4.11381e-15
ExecutionTime = 0.22 s  ClockTime = 0 s

Courant Number mean: 0.00822523 max: 0.294722
Time = 0.00038

PIMPLE: iteration 1
diagonal:  Solving for rho, Initial residual = 0, Final residual = 0, No Iterations 0
smoothSolver:  Solving for Ux, Initial residual = 0.00486922, Final residual = 1.29022e-17, No Iterations 1
smoothSolver:  Solving for e, Initial residual = 0.00108919, Final residual = 6.85935e-16, No Iterations 7
smoothSolver:  Solving for p, Initial residual = 0.000289995, Final residual = 6.45704e-17, No Iterations 6
diagonal:  Solving for rho, Initial residual = 0, Final residual = 0, No Iterations 0
time step continuity errors : sum local = 1.3731e-16, global = -2.70564e-17, cumulative = 4.08675e-15
PIMPLE: iteration 2
smoothSolver:  Solving for Ux, Initial residual = 0.000149488, Final residual = 1.23129e-17, No Iterations 1
smoothSolver:  Solving for e, Initial residual = 0.000122754, Final residual = 6.04271e-17, No Iterations 7
smoothSolver:  Solving for p, Initial residual = 2.56277e-05, Final residual = 2.88528e-16, No Iterations 5
diagonal:  Solving for rho, Initial residual = 0, Final residual = 0, No Iterations 0
time step continuity errors : sum local = 5.24854e-16, global = 1.98348e-17, cumulative = 4.10659e-15
PIMPLE: iteration 3
smoothSolver:  Solving for Ux, Initial residual = 7.14543e-05, Final residual = 2.03122e-17, No Iterations 1
smoothSolver:  Solving for e, Initial residual = 5.85851e-05, Final residual = 6.63227e-16, No Iterations 6
smoothSolver:  Solving for p, Initial residual = 6.75012e-06, Final residual = 9.52453e-17, No Iterations 5
diagonal:  Solving for rho, Initial residual = 0, Final residual = 0, No Iterations 0
time step continuity errors : sum local = 1.87589e-16, global = 3.08898e-17, cumulative = 4.13748e-15
ExecutionTime = 0.22 s  ClockTime = 0 s

Courant Number mean: 0.00844426 max: 0.294679
Time = 0.00039

PIMPLE: iteration 1
diagonal:  Solving for rho, Initial residual = 0, Final residual = 0, No Iterations 0
smoothSolver:  Solving for Ux, Initial residual = 0.00474425, Final residual = 1.6133e-17, No Iterations 1
smoothSolver:  Solving for e, Initial residual = 0.00108698, Final residual = 7.11823e-16, No Iterations 7
smoothSolver:  Solving for p, Initial residual = 0.00029005, Final residual = 6.33497e-17, No Iterations 6
diagonal:  Solving for rho, Initial residual = 0, Final residual = 0, No Iterations 0
time step continuity errors : sum local = 1.38373e-16, global = -3.40554e-17, cumulative = 4.10342e-15
PIMPLE: iteration 2
smoothSolver:  Solving for Ux, Initial residual = 0.000148329, Final residual = 1.51135e-17, No Iterations 1
smoothSolver:  Solving for e, Initial residual = 0.00011625, Final residual = 6.41254e-17, No Iterations 7
smoothSolver:  Solving for p, Initial residual = 2.37372e-05, Final residual = 2.7108e-16, No Iterations 5
diagonal:  Solving for rho, Initial residual = 0, Final residual = 0, No Iterations 0
time step continuity errors : sum local = 4.94855e-16, global = 2.07004e-17, cumulative = 4.12412e-15
PIMPLE: iteration 3
smoothSolver:  Solving for Ux, Initial residual = 6.93356e-05, Final residual = 1.2709e-17, No Iterations 1
smoothSolver:  Solving for e, Initial residual = 5.79468e-05, Final residual = 6.47696e-16, No Iterations 6
smoothSolver:  Solving for p, Initial residual = 7.47683e-06, Final residual = 1.01097e-16, No Iterations 5
diagonal:  Solving for rho, Initial residual = 0, Final residual = 0, No Iterations 0
time step continuity errors : sum local = 2.00079e-16, global = 2.64628e-17, cumulative = 4.15058e-15
ExecutionTime = 0.22 s  ClockTime = 0 s

Courant Number mean: 0.00866333 max: 0.294609
Time = 0.0004

PIMPLE: iteration 1
diagonal:  Solving for rho, Initial residual = 0, Final residual = 0, No Iterations 0
smoothSolver:  Solving for Ux, Initial residual = 0.00462678, Final residual = 1.21869e-17, No Iterations 1
smoothSolver:  Solving for e, Initial residual = 0.00108629, Final residual = 7.20553e-16, No Iterations 7
smoothSolver:  Solving for p, Initial residual = 0.000289914, Final residual = 6.57836e-17, No Iterations 6
diagonal:  Solving for rho, Initial residual = 0, Final residual = 0, No Iterations 0
time step continuity errors : sum local = 1.45818e-16, global = -3.41791e-17, cumulative = 4.1164e-15
PIMPLE: iteration 2
smoothSolver:  Solving for Ux, Initial residual = 0.000139641, Final residual = 1.50704e-17, No Iterations 1
smoothSolver:  Solving for e, Initial residual = 0.000122858, Final residual = 6.39785e-17, No Iterations 7
smoothSolver:  Solving for p, Initial residual = 2.53438e-05, Final residual = 2.87332e-16, No Iterations 5
diagonal:  Solving for rho, Initial residual = 0, Final residual = 0, No Iterations 0
time step continuity errors : sum local = 5.23989e-16, global = 1.81777e-17, cumulative = 4.13458e-15
PIMPLE: iteration 3
smoothSolver:  Solving for Ux, Initial residual = 6.70097e-05, Final residual = 1.48594e-17, No Iterations 1
smoothSolver:  Solving for e, Initial residual = 6.24614e-05, Final residual = 7.96744e-16, No Iterations 6
smoothSolver:  Solving for p, Initial residual = 7.47543e-06, Final residual = 9.4707e-17, No Iterations 5
diagonal:  Solving for rho, Initial residual = 0, Final residual = 0, No Iterations 0
time step continuity errors : sum local = 1.90433e-16, global = 2.13681e-17, cumulative = 4.15595e-15
ExecutionTime = 0.23 s  ClockTime = 0 s

Courant Number mean: 0.00888243 max: 0.29463
Time = 0.00041

PIMPLE: iteration 1
diagonal:  Solving for rho, Initial residual = 0, Final residual = 0, No Iterations 0
smoothSolver:  Solving for Ux, Initial residual = 0.00451604, Final residual = 1.68456e-17, No Iterations 1
smoothSolver:  Solving for e, Initial residual = 0.00108501, Final residual = 7.10465e-16, No Iterations 7
smoothSolver:  Solving for p, Initial residual = 0.000290111, Final residual = 6.36007e-17, No Iterations 6
diagonal:  Solving for rho, Initial residual = 0, Final residual = 0, No Iterations 0
time step continuity errors : sum local = 1.38868e-16, global = -2.5894e-17, cumulative = 4.13006e-15
PIMPLE: iteration 2
smoothSolver:  Solving for Ux, Initial residual = 0.000138691, Final residual = 1.55302e-17, No Iterations 1
smoothSolver:  Solving for e, Initial residual = 0.000110309, Final residual = 6.15738e-17, No Iterations 7
smoothSolver:  Solving for p, Initial residual = 2.38547e-05, Final residual = 2.74596e-16, No Iterations 5
diagonal:  Solving for rho, Initial residual = 0, Final residual = 0, No Iterations 0
time step continuity errors : sum local = 5.0821e-16, global = 1.58035e-17, cumulative = 4.14586e-15
PIMPLE: iteration 3
smoothSolver:  Solving for Ux, Initial residual = 6.51672e-05, Final residual = 1.38201e-17, No Iterations 1
smoothSolver:  Solving for e, Initial residual = 5.81827e-05, Final residual = 6.041e-16, No Iterations 6
smoothSolver:  Solving for p, Initial residual = 7.32566e-06, Final residual = 1.01262e-16, No Iterations 5
diagonal:  Solving for rho, Initial residual = 0, Final residual = 0, No Iterations 0
time step continuity errors : sum local = 2.04803e-16, global = 3.11866e-17, cumulative = 4.17705e-15
ExecutionTime = 0.23 s  ClockTime = 0 s

Courant Number mean: 0.00910155 max: 0.29462
Time = 0.00042

PIMPLE: iteration 1
diagonal:  Solving for rho, Initial residual = 0, Final residual = 0, No Iterations 0
smoothSolver:  Solving for Ux, Initial residual = 0.00441129, Final residual = 1.75864e-17, No Iterations 1
smoothSolver:  Solving for e, Initial residual = 0.00108841, Final residual = 7.09383e-16, No Iterations 7
smoothSolver:  Solving for p, Initial residual = 0.000290133, Final residual = 6.313e-17, No Iterations 6
diagonal:  Solving for rho, Initial residual = 0, Final residual = 0, No Iterations 0
time step continuity errors : sum local = 1.44037e-16, global = -3.04199e-17, cumulative = 4.14663e-15
PIMPLE: iteration 2
smoothSolver:  Solving for Ux, Initial residual = 0.000132829, Final residual = 1.46404e-17, No Iterations 1
smoothSolver:  Solving for e, Initial residual = 0.000121704, Final residual = 5.90781e-17, No Iterations 7
smoothSolver:  Solving for p, Initial residual = 2.49925e-05, Final residual = 2.80594e-16, No Iterations 5
diagonal:  Solving for rho, Initial residual = 0, Final residual = 0, No Iterations 0
time step continuity errors : sum local = 5.17707e-16, global = 1.86229e-17, cumulative = 4.16525e-15
PIMPLE: iteration 3
smoothSolver:  Solving for Ux, Initial residual = 6.31305e-05, Final residual = 1.43854e-17, No Iterations 1
smoothSolver:  Solving for e, Initial residual = 5.55034e-05, Final residual = 6.27043e-16, No Iterations 6
smoothSolver:  Solving for p, Initial residual = 6.87351e-06, Final residual = 9.21339e-17, No Iterations 5
diagonal:  Solving for rho, Initial residual = 0, Final residual = 0, No Iterations 0
time step continuity errors : sum local = 1.90137e-16, global = 2.72048e-17, cumulative = 4.19245e-15
ExecutionTime = 0.24 s  ClockTime = 0 s

Courant Number mean: 0.00932069 max: 0.294569
Time = 0.00043

PIMPLE: iteration 1
diagonal:  Solving for rho, Initial residual = 0, Final residual = 0, No Iterations 0
smoothSolver:  Solving for Ux, Initial residual = 0.0043084, Final residual = 1.40725e-17, No Iterations 1
smoothSolver:  Solving for e, Initial residual = 0.00108817, Final residual = 7.27555e-16, No Iterations 7
smoothSolver:  Solving for p, Initial residual = 0.000290248, Final residual = 6.28303e-17, No Iterations 6
diagonal:  Solving for rho, Initial residual = 0, Final residual = 0, No Iterations 0
time step continuity errors : sum local = 1.43641e-16, global = -3.82845e-17, cumulative = 4.15417e-15
PIMPLE: iteration 2
smoothSolver:  Solving for Ux, Initial residual = 0.000129627, Final residual = 1.369e-17, No Iterations 1
smoothSolver:  Solving for e, Initial residual = 0.000105654, Final residual = 6.26719e-17, No Iterations 7
smoothSolver:  Solving for p, Initial residual = 2.41257e-05, Final residual = 2.73055e-16, No Iterations 5
diagonal:  Solving for rho, Initial residual = 0, Final residual = 0, No Iterations 0
time step continuity errors : sum local = 5.14294e-16, global = 2.04036e-17, cumulative = 4.17457e-15
PIMPLE: iteration 3
smoothSolver:  Solving for Ux, Initial residual = 6.15224e-05, Final residual = 1.69768e-17, No Iterations 1
smoothSolver:  Solving for e, Initial residual = 5.63318e-05, Final residual = 5.6464e-16, No Iterations 6
smoothSolver:  Solving for p, Initial residual = 7.03692e-06, Final residual = 9.91528e-17, No Iterations 5
diagonal:  Solving for rho, Initial residual = 0, Final residual = 0, No Iterations 0
time step continuity errors : sum local = 2.06336e-16, global = 2.26789e-17, cumulative = 4.19725e-15
ExecutionTime = 0.24 s  ClockTime = 0 s

Courant Number mean: 0.00953986 max: 0.294566
Time = 0.00044

PIMPLE: iteration 1
diagonal:  Solving for rho, Initial residual = 0, Final residual = 0, No Iterations 0
smoothSolver:  Solving for Ux, Initial residual = 0.00421214, Final residual = 1.52458e-17, No Iterations 1
smoothSolver:  Solving for e, Initial residual = 0.00108783, Final residual = 7.30302e-16, No Iterations 7
smoothSolver:  Solving for p, Initial residual = 0.000290307, Final residual = 6.25645e-17, No Iterations 6
diagonal:  Solving for rho, Initial residual = 0, Final residual = 0, No Iterations 0
time step continuity errors : sum local = 1.36692e-16, global = -3.48963e-17, cumulative = 4.16236e-15
PIMPLE: iteration 2
smoothSolver:  Solving for Ux, Initial residual = 0.000126026, Final residual = 1.66037e-17, No Iterations 1
smoothSolver:  Solving for e, Initial residual = 0.000117587, Final residual = 6.31491e-17, No Iterations 7
smoothSolver:  Solving for p, Initial residual = 2.43297e-05, Final residual = 2.76274e-16, No Iterations 5
diagonal:  Solving for rho, Initial residual = 0, Final residual = 0, No Iterations 0
time step continuity errors : sum local = 5.10164e-16, global = 1.23658e-18, cumulative = 4.16359e-15
PIMPLE: iteration 3
smoothSolver:  Solving for Ux, Initial residual = 5.96705e-05, Final residual = 1.92818e-17, No Iterations 1
[...]
diagonal:  Solving for rho, Initial residual = 0, Final residual = 0, No Iterations 0
time step continuity errors : sum local = 2.35898e-16, global = 8.25041e-17, cumulative = -1.84232e-14
ExecutionTime = 4.82 s  ClockTime = 5 s

Courant Number mean: 0.20393 max: 0.293508
Time = 0.0099

PIMPLE: iteration 1
diagonal:  Solving for rho, Initial residual = 0, Final residual = 0, No Iterations 0
smoothSolver:  Solving for Ux, Initial residual = 0.000339783, Final residual = 4.62202e-17, No Iterations 1
smoothSolver:  Solving for e, Initial residual = 0.000650062, Final residual = 7.76894e-16, No Iterations 7
smoothSolver:  Solving for p, Initial residual = 0.000348037, Final residual = 8.76694e-17, No Iterations 6
diagonal:  Solving for rho, Initial residual = 0, Final residual = 0, No Iterations 0
time step continuity errors : sum local = 1.50411e-16, global = -3.84539e-17, cumulative = -1.84617e-14
PIMPLE: iteration 2
smoothSolver:  Solving for Ux, Initial residual = 3.86237e-07, Final residual = 4.42477e-17, No Iterations 1
smoothSolver:  Solving for e, Initial residual = 5.24669e-06, Final residual = 4.15488e-16, No Iterations 6
smoothSolver:  Solving for p, Initial residual = 1.59975e-06, Final residual = 7.97522e-17, No Iterations 5
diagonal:  Solving for rho, Initial residual = 0, Final residual = 0, No Iterations 0
time step continuity errors : sum local = 1.39996e-16, global = -1.16163e-17, cumulative = -1.84733e-14
PIMPLE: iteration 3
smoothSolver:  Solving for Ux, Initial residual = 1.09858e-07, Final residual = 4.53205e-17, No Iterations 1
smoothSolver:  Solving for e, Initial residual = 5.28944e-07, Final residual = 5.24908e-17, No Iterations 6
smoothSolver:  Solving for p, Initial residual = 1.45237e-07, Final residual = 2.10994e-16, No Iterations 4
diagonal:  Solving for rho, Initial residual = 0, Final residual = 0, No Iterations 0
time step continuity errors : sum local = 2.53255e-16, global = 8.00122e-17, cumulative = -1.83933e-14
ExecutionTime = 4.83 s  ClockTime = 5 s

Courant Number mean: 0.203988 max: 0.293508
Time = 0.00991

PIMPLE: iteration 1
diagonal:  Solving for rho, Initial residual = 0, Final residual = 0, No Iterations 0
smoothSolver:  Solving for Ux, Initial residual = 0.000340011, Final residual = 4.50673e-17, No Iterations 1
smoothSolver:  Solving for e, Initial residual = 0.000650194, Final residual = 7.80239e-16, No Iterations 7
smoothSolver:  Solving for p, Initial residual = 0.000348244, Final residual = 8.86303e-17, No Iterations 6
diagonal:  Solving for rho, Initial residual = 0, Final residual = 0, No Iterations 0
time step continuity errors : sum local = 1.3591e-16, global = -3.79585e-17, cumulative = -1.84312e-14
PIMPLE: iteration 2
smoothSolver:  Solving for Ux, Initial residual = 3.86057e-07, Final residual = 4.67872e-17, No Iterations 1
smoothSolver:  Solving for e, Initial residual = 5.24421e-06, Final residual = 4.14744e-16, No Iterations 6
smoothSolver:  Solving for p, Initial residual = 1.59888e-06, Final residual = 7.31e-17, No Iterations 5
diagonal:  Solving for rho, Initial residual = 0, Final residual = 0, No Iterations 0
time step continuity errors : sum local = 1.35309e-16, global = -1.01156e-17, cumulative = -1.84414e-14
PIMPLE: iteration 3
smoothSolver:  Solving for Ux, Initial residual = 1.09819e-07, Final residual = 4.49192e-17, No Iterations 1
smoothSolver:  Solving for e, Initial residual = 5.28266e-07, Final residual = 5.30258e-17, No Iterations 6
smoothSolver:  Solving for p, Initial residual = 1.4514e-07, Final residual = 2.05942e-16, No Iterations 4
diagonal:  Solving for rho, Initial residual = 0, Final residual = 0, No Iterations 0
time step continuity errors : sum local = 2.43175e-16, global = 7.83208e-17, cumulative = -1.8363e-14
ExecutionTime = 4.83 s  ClockTime = 5 s

Courant Number mean: 0.204045 max: 0.293507
Time = 0.00992

PIMPLE: iteration 1
diagonal:  Solving for rho, Initial residual = 0, Final residual = 0, No Iterations 0
smoothSolver:  Solving for Ux, Initial residual = 0.000340239, Final residual = 4.36987e-17, No Iterations 1
smoothSolver:  Solving for e, Initial residual = 0.000650335, Final residual = 7.80034e-16, No Iterations 7
smoothSolver:  Solving for p, Initial residual = 0.000348453, Final residual = 9.02546e-17, No Iterations 6
diagonal:  Solving for rho, Initial residual = 0, Final residual = 0, No Iterations 0
time step continuity errors : sum local = 1.44443e-16, global = -4.94832e-17, cumulative = -1.84125e-14
PIMPLE: iteration 2
smoothSolver:  Solving for Ux, Initial residual = 3.85873e-07, Final residual = 4.42645e-17, No Iterations 1
smoothSolver:  Solving for e, Initial residual = 5.2435e-06, Final residual = 4.17162e-16, No Iterations 6
smoothSolver:  Solving for p, Initial residual = 1.5987e-06, Final residual = 7.44833e-17, No Iterations 5
diagonal:  Solving for rho, Initial residual = 0, Final residual = 0, No Iterations 0
time step continuity errors : sum local = 1.4244e-16, global = -2.80472e-18, cumulative = -1.84153e-14
PIMPLE: iteration 3
smoothSolver:  Solving for Ux, Initial residual = 1.09774e-07, Final residual = 4.31068e-17, No Iterations 1
smoothSolver:  Solving for e, Initial residual = 5.27276e-07, Final residual = 5.48995e-17, No Iterations 6
smoothSolver:  Solving for p, Initial residual = 1.4501e-07, Final residual = 2.08033e-16, No Iterations 4
diagonal:  Solving for rho, Initial residual = 0, Final residual = 0, No Iterations 0
time step continuity errors : sum local = 2.4371e-16, global = 8.54437e-17, cumulative = -1.83299e-14
ExecutionTime = 4.84 s  ClockTime = 5 s

Courant Number mean: 0.204103 max: 0.293507
Time = 0.00993

PIMPLE: iteration 1
diagonal:  Solving for rho, Initial residual = 0, Final residual = 0, No Iterations 0
smoothSolver:  Solving for Ux, Initial residual = 0.000340467, Final residual = 4.51983e-17, No Iterations 1
smoothSolver:  Solving for e, Initial residual = 0.000650481, Final residual = 7.79021e-16, No Iterations 7
smoothSolver:  Solving for p, Initial residual = 0.000348662, Final residual = 9.09292e-17, No Iterations 6
diagonal:  Solving for rho, Initial residual = 0, Final residual = 0, No Iterations 0
time step continuity errors : sum local = 1.46166e-16, global = -3.37615e-17, cumulative = -1.83636e-14
PIMPLE: iteration 2
smoothSolver:  Solving for Ux, Initial residual = 3.8568e-07, Final residual = 4.54528e-17, No Iterations 1
smoothSolver:  Solving for e, Initial residual = 5.23971e-06, Final residual = 4.16111e-16, No Iterations 6
smoothSolver:  Solving for p, Initial residual = 1.5991e-06, Final residual = 7.40413e-17, No Iterations 5
diagonal:  Solving for rho, Initial residual = 0, Final residual = 0, No Iterations 0
time step continuity errors : sum local = 1.31439e-16, global = -1.36248e-17, cumulative = -1.83773e-14
PIMPLE: iteration 3
smoothSolver:  Solving for Ux, Initial residual = 1.09725e-07, Final residual = 4.70093e-17, No Iterations 1
smoothSolver:  Solving for e, Initial residual = 5.26405e-07, Final residual = 9.98519e-16, No Iterations 5
smoothSolver:  Solving for p, Initial residual = 1.44887e-07, Final residual = 2.05082e-16, No Iterations 4
diagonal:  Solving for rho, Initial residual = 0, Final residual = 0, No Iterations 0
time step continuity errors : sum local = 2.41239e-16, global = 8.19493e-17, cumulative = -1.82953e-14
ExecutionTime = 4.84 s  ClockTime = 5 s

Courant Number mean: 0.204161 max: 0.293507
Time = 0.00994

PIMPLE: iteration 1
diagonal:  Solving for rho, Initial residual = 0, Final residual = 0, No Iterations 0
smoothSolver:  Solving for Ux, Initial residual = 0.000340696, Final residual = 4.54425e-17, No Iterations 1
smoothSolver:  Solving for e, Initial residual = 0.000650621, Final residual = 7.81837e-16, No Iterations 7
smoothSolver:  Solving for p, Initial residual = 0.000348871, Final residual = 8.81904e-17, No Iterations 6
diagonal:  Solving for rho, Initial residual = 0, Final residual = 0, No Iterations 0
time step continuity errors : sum local = 1.51096e-16, global = -4.32849e-17, cumulative = -1.83386e-14
PIMPLE: iteration 2
smoothSolver:  Solving for Ux, Initial residual = 3.85477e-07, Final residual = 4.59159e-17, No Iterations 1
smoothSolver:  Solving for e, Initial residual = 5.23457e-06, Final residual = 4.14016e-16, No Iterations 6
smoothSolver:  Solving for p, Initial residual = 1.59867e-06, Final residual = 7.34366e-17, No Iterations 5
diagonal:  Solving for rho, Initial residual = 0, Final residual = 0, No Iterations 0
time step continuity errors : sum local = 1.40275e-16, global = -1.18232e-17, cumulative = -1.83504e-14
PIMPLE: iteration 3
smoothSolver:  Solving for Ux, Initial residual = 1.0969e-07, Final residual = 4.4002e-17, No Iterations 1
smoothSolver:  Solving for e, Initial residual = 5.25739e-07, Final residual = 9.96342e-16, No Iterations 5
smoothSolver:  Solving for p, Initial residual = 1.4477e-07, Final residual = 2.07733e-16, No Iterations 4
diagonal:  Solving for rho, Initial residual = 0, Final residual = 0, No Iterations 0
time step continuity errors : sum local = 2.42375e-16, global = 7.56484e-17, cumulative = -1.82748e-14
ExecutionTime = 4.85 s  ClockTime = 5 s

Courant Number mean: 0.204219 max: 0.293507
Time = 0.00995

PIMPLE: iteration 1
diagonal:  Solving for rho, Initial residual = 0, Final residual = 0, No Iterations 0
smoothSolver:  Solving for Ux, Initial residual = 0.000340925, Final residual = 4.81342e-17, No Iterations 1
smoothSolver:  Solving for e, Initial residual = 0.000650762, Final residual = 7.80099e-16, No Iterations 7
smoothSolver:  Solving for p, Initial residual = 0.00034908, Final residual = 8.55613e-17, No Iterations 6
diagonal:  Solving for rho, Initial residual = 0, Final residual = 0, No Iterations 0
time step continuity errors : sum local = 1.45406e-16, global = -4.15874e-17, cumulative = -1.83164e-14
PIMPLE: iteration 2
smoothSolver:  Solving for Ux, Initial residual = 3.85272e-07, Final residual = 4.69483e-17, No Iterations 1
smoothSolver:  Solving for e, Initial residual = 5.23467e-06, Final residual = 4.13676e-16, No Iterations 6
smoothSolver:  Solving for p, Initial residual = 1.59777e-06, Final residual = 7.6461e-17, No Iterations 5
diagonal:  Solving for rho, Initial residual = 0, Final residual = 0, No Iterations 0
time step continuity errors : sum local = 1.27067e-16, global = -9.41979e-18, cumulative = -1.83258e-14
PIMPLE: iteration 3
smoothSolver:  Solving for Ux, Initial residual = 1.09652e-07, Final residual = 4.43228e-17, No Iterations 1
smoothSolver:  Solving for e, Initial residual = 5.247e-07, Final residual = 9.97943e-16, No Iterations 5
smoothSolver:  Solving for p, Initial residual = 1.44624e-07, Final residual = 2.03423e-16, No Iterations 4
diagonal:  Solving for rho, Initial residual = 0, Final residual = 0, No Iterations 0
time step continuity errors : sum local = 2.36196e-16, global = 9.04901e-17, cumulative = -1.82353e-14
ExecutionTime = 4.85 s  ClockTime = 5 s

Courant Number mean: 0.204277 max: 0.293507
Time = 0.00996

PIMPLE: iteration 1
diagonal:  Solving for rho, Initial residual = 0, Final residual = 0, No Iterations 0
smoothSolver:  Solving for Ux, Initial residual = 0.000341155, Final residual = 4.46138e-17, No Iterations 1
smoothSolver:  Solving for e, Initial residual = 0.000650913, Final residual = 7.80711e-16, No Iterations 7
smoothSolver:  Solving for p, Initial residual = 0.00034929, Final residual = 8.95115e-17, No Iterations 6
diagonal:  Solving for rho, Initial residual = 0, Final residual = 0, No Iterations 0
time step continuity errors : sum local = 1.43121e-16, global = -4.22948e-17, cumulative = -1.82776e-14
PIMPLE: iteration 2
smoothSolver:  Solving for Ux, Initial residual = 3.85067e-07, Final residual = 4.67864e-17, No Iterations 1
smoothSolver:  Solving for e, Initial residual = 5.23201e-06, Final residual = 4.15681e-16, No Iterations 6
smoothSolver:  Solving for p, Initial residual = 1.59847e-06, Final residual = 7.53837e-17, No Iterations 5
diagonal:  Solving for rho, Initial residual = 0, Final residual = 0, No Iterations 0
time step continuity errors : sum local = 1.41417e-16, global = -6.31415e-18, cumulative = -1.82839e-14
PIMPLE: iteration 3
smoothSolver:  Solving for Ux, Initial residual = 1.09615e-07, Final residual = 4.47016e-17, No Iterations 1
smoothSolver:  Solving for e, Initial residual = 5.23626e-07, Final residual = 9.98486e-16, No Iterations 5
smoothSolver:  Solving for p, Initial residual = 1.44471e-07, Final residual = 2.07015e-16, No Iterations 4
diagonal:  Solving for rho, Initial residual = 0, Final residual = 0, No Iterations 0
time step continuity errors : sum local = 2.40539e-16, global = 7.57698e-17, cumulative = -1.82081e-14
ExecutionTime = 4.86 s  ClockTime = 5 s

Courant Number mean: 0.204335 max: 0.293507
Time = 0.00997

PIMPLE: iteration 1
diagonal:  Solving for rho, Initial residual = 0, Final residual = 0, No Iterations 0
smoothSolver:  Solving for Ux, Initial residual = 0.000341385, Final residual = 4.60393e-17, No Iterations 1
smoothSolver:  Solving for e, Initial residual = 0.000651062, Final residual = 7.81414e-16, No Iterations 7
smoothSolver:  Solving for p, Initial residual = 0.000349501, Final residual = 8.57777e-17, No Iterations 6
diagonal:  Solving for rho, Initial residual = 0, Final residual = 0, No Iterations 0
time step continuity errors : sum local = 1.54568e-16, global = -4.25012e-17, cumulative = -1.82506e-14
PIMPLE: iteration 2
smoothSolver:  Solving for Ux, Initial residual = 3.84867e-07, Final residual = 4.7582e-17, No Iterations 1
smoothSolver:  Solving for e, Initial residual = 5.22672e-06, Final residual = 4.15213e-16, No Iterations 6
smoothSolver:  Solving for p, Initial residual = 1.59831e-06, Final residual = 7.20353e-17, No Iterations 5
diagonal:  Solving for rho, Initial residual = 0, Final residual = 0, No Iterations 0
time step continuity errors : sum local = 1.27604e-16, global = -3.70883e-18, cumulative = -1.82543e-14
PIMPLE: iteration 3
smoothSolver:  Solving for Ux, Initial residual = 1.09569e-07, Final residual = 4.48874e-17, No Iterations 1
smoothSolver:  Solving for e, Initial residual = 5.2337e-07, Final residual = 9.91498e-16, No Iterations 5
smoothSolver:  Solving for p, Initial residual = 1.44334e-07, Final residual = 2.08547e-16, No Iterations 4
diagonal:  Solving for rho, Initial residual = 0, Final residual = 0, No Iterations 0
time step continuity errors : sum local = 2.42578e-16, global = 7.77852e-17, cumulative = -1.81766e-14
ExecutionTime = 4.86 s  ClockTime = 5 s

Courant Number mean: 0.204393 max: 0.293507
Time = 0.00998

PIMPLE: iteration 1
diagonal:  Solving for rho, Initial residual = 0, Final residual = 0, No Iterations 0
smoothSolver:  Solving for Ux, Initial residual = 0.000341616, Final residual = 4.60042e-17, No Iterations 1
smoothSolver:  Solving for e, Initial residual = 0.000651205, Final residual = 7.83185e-16, No Iterations 7
smoothSolver:  Solving for p, Initial residual = 0.000349711, Final residual = 8.26688e-17, No Iterations 6
diagonal:  Solving for rho, Initial residual = 0, Final residual = 0, No Iterations 0
time step continuity errors : sum local = 1.40454e-16, global = -2.51634e-17, cumulative = -1.82017e-14
PIMPLE: iteration 2
smoothSolver:  Solving for Ux, Initial residual = 3.84729e-07, Final residual = 4.70129e-17, No Iterations 1
smoothSolver:  Solving for e, Initial residual = 5.22585e-06, Final residual = 4.15516e-16, No Iterations 6
smoothSolver:  Solving for p, Initial residual = 1.59747e-06, Final residual = 7.5015e-17, No Iterations 5
diagonal:  Solving for rho, Initial residual = 0, Final residual = 0, No Iterations 0
time step continuity errors : sum local = 1.45467e-16, global = -1.01255e-17, cumulative = -1.82118e-14
PIMPLE: iteration 3
smoothSolver:  Solving for Ux, Initial residual = 1.09536e-07, Final residual = 4.30412e-17, No Iterations 1
smoothSolver:  Solving for e, Initial residual = 5.23611e-07, Final residual = 9.99137e-16, No Iterations 5
smoothSolver:  Solving for p, Initial residual = 1.44427e-07, Final residual = 2.06799e-16, No Iterations 4
diagonal:  Solving for rho, Initial residual = 0, Final residual = 0, No Iterations 0
time step continuity errors : sum local = 2.40807e-16, global = 7.81971e-17, cumulative = -1.81337e-14
ExecutionTime = 4.87 s  ClockTime = 5 s

Courant Number mean: 0.204451 max: 0.293507
Time = 0.00999

PIMPLE: iteration 1
diagonal:  Solving for rho, Initial residual = 0, Final residual = 0, No Iterations 0
smoothSolver:  Solving for Ux, Initial residual = 0.000341847, Final residual = 4.52675e-17, No Iterations 1
smoothSolver:  Solving for e, Initial residual = 0.000651357, Final residual = 7.8286e-16, No Iterations 7
smoothSolver:  Solving for p, Initial residual = 0.000349923, Final residual = 9.05514e-17, No Iterations 6
diagonal:  Solving for rho, Initial residual = 0, Final residual = 0, No Iterations 0
time step continuity errors : sum local = 1.43482e-16, global = -4.20118e-17, cumulative = -1.81757e-14
PIMPLE: iteration 2
smoothSolver:  Solving for Ux, Initial residual = 3.84586e-07, Final residual = 4.50761e-17, No Iterations 1
smoothSolver:  Solving for e, Initial residual = 5.22502e-06, Final residual = 4.15197e-16, No Iterations 6
smoothSolver:  Solving for p, Initial residual = 1.59791e-06, Final residual = 7.4657e-17, No Iterations 5
diagonal:  Solving for rho, Initial residual = 0, Final residual = 0, No Iterations 0
time step continuity errors : sum local = 1.3516e-16, global = -2.32619e-17, cumulative = -1.81989e-14
PIMPLE: iteration 3
smoothSolver:  Solving for Ux, Initial residual = 1.09505e-07, Final residual = 4.60347e-17, No Iterations 1
smoothSolver:  Solving for e, Initial residual = 5.24109e-07, Final residual = 9.90798e-16, No Iterations 5
smoothSolver:  Solving for p, Initial residual = 1.44467e-07, Final residual = 2.06415e-16, No Iterations 4
diagonal:  Solving for rho, Initial residual = 0, Final residual = 0, No Iterations 0
time step continuity errors : sum local = 2.41944e-16, global = 6.90838e-17, cumulative = -1.81298e-14
ExecutionTime = 4.87 s  ClockTime = 5 s

Courant Number mean: 0.204509 max: 0.293507
Time = 0.01

PIMPLE: iteration 1
diagonal:  Solving for rho, Initial residual = 0, Final residual = 0, No Iterations 0
smoothSolver:  Solving for Ux, Initial residual = 0.000342079, Final residual = 4.53796e-17, No Iterations 1
smoothSolver:  Solving for e, Initial residual = 0.000651514, Final residual = 7.80395e-16, No Iterations 7
smoothSolver:  Solving for p, Initial residual = 0.000350135, Final residual = 8.65214e-17, No Iterations 6
diagonal:  Solving for rho, Initial residual = 0, Final residual = 0, No Iterations 0
time step continuity errors : sum local = 1.45106e-16, global = -4.34216e-17, cumulative = -1.81733e-14
PIMPLE: iteration 2
smoothSolver:  Solving for Ux, Initial residual = 3.84428e-07, Final residual = 4.64951e-17, No Iterations 1
smoothSolver:  Solving for e, Initial residual = 5.2213e-06, Final residual = 4.15611e-16, No Iterations 6
smoothSolver:  Solving for p, Initial residual = 1.5986e-06, Final residual = 7.45111e-17, No Iterations 5
diagonal:  Solving for rho, Initial residual = 0, Final residual = 0, No Iterations 0
time step continuity errors : sum local = 1.42399e-16, global = -7.01966e-18, cumulative = -1.81803e-14
PIMPLE: iteration 3
smoothSolver:  Solving for Ux, Initial residual = 1.09476e-07, Final residual = 4.70649e-17, No Iterations 1
smoothSolver:  Solving for e, Initial residual = 5.23789e-07, Final residual = 9.90374e-16, No Iterations 5
smoothSolver:  Solving for p, Initial residual = 1.44436e-07, Final residual = 2.08693e-16, No Iterations 4
diagonal:  Solving for rho, Initial residual = 0, Final residual = 0, No Iterations 0
time step continuity errors : sum local = 2.3917e-16, global = 8.8548e-17, cumulative = -1.80917e-14
ExecutionTime = 4.88 s  ClockTime = 5 s

    functionObjects::mag mag(U) writing field: mag(U)
End

