/*---------------------------------------------------------------------------*\
| =========                 |                                                 |
| \\      /  F ield         | OpenFOAM: The Open Source CFD Toolbox           |
|  \\    /   O peration     | Version:  2012                                  |
|   \\  /    A nd           | Website:  www.openfoam.com                      |
|    \\/     M anipulation  |                                                 |
\*---------------------------------------------------------------------------*/
Build  : _269d0ffd5c-20210619 OPENFOAM=2012 patch=210618
Arch   : "LSB;label=32;scalar=64"
Exec   : mhdFoam
Date   : Apr 22 2022
Time   : 22:06:18
Host   : gabrielmarconcini-Lenovo-G50-80
PID    : 8904
I/O    : uncollated
Case   : /home/gabrielmarconcini/Documentos/TCC/PTCC/Hartmann/mhdFoam/sim3
nProcs : 1
trapFpe: Floating point exception trapping enabled (FOAM_SIGFPE).
fileModificationChecking : Monitoring run-time modified files using timeStampMaster (fileModificationSkew 5, maxFileModificationPolls 20)
allowSystemOperations : Allowing user-supplied system call operations

// * * * * * * * * * * * * * * * * * * * * * * * * * * * * * * * * * * * * * //
Create time

Create mesh for time = 0


PISO: Operating solver in PISO mode


BPISO: Operating solver in PISO mode

Reading transportProperties

Reading field p

Reading field U

Reading/calculating face flux field phi

Reading field pB

Reading field B

Calculating face flux phiB


Starting time loop
Time = 0.001

Courant Number mean: 2.5e-05 max: 0.003
smoothSolver:  Solving for Ux, Initial residual = 1, Final residual = 7.06264e-06, No Iterations 19
smoothSolver:  Solving for Uy, Initial residual = 1, Final residual = 9.98777e-06, No Iterations 16
DICPCG:  Solving for p, Initial residual = 1, Final residual = 0.0494086, No Iterations 81
time step continuity errors : sum local = 2.47043e-06, global = -3.79172e-08, cumulative = -3.79172e-08
DICPCG:  Solving for p, Initial residual = 0.00143963, Final residual = 6.07176e-05, No Iterations 81
time step continuity errors : sum local = 7.54247e-07, global = 1.35898e-08, cumulative = -2.43274e-08
DICPCG:  Solving for p, Initial residual = 0.000352313, Final residual = 8.47149e-07, No Iterations 86
time step continuity errors : sum local = 7.87352e-09, global = -1.38798e-10, cumulative = -2.44662e-08
smoothSolver:  Solving for Bx, Initial residual = 1, Final residual = 6.97844e-06, No Iterations 23
smoothSolver:  Solving for By, Initial residual = 1, Final residual = 7.12051e-06, No Iterations 22
DICPCG:  Solving for pB, Initial residual = 1, Final residual = 8.32779e-06, No Iterations 89
magnetic flux divergence error = 2.27609e-11
smoothSolver:  Solving for Bx, Initial residual = 1.16053e-05, Final residual = 5.75369e-06, No Iterations 1
smoothSolver:  Solving for By, Initial residual = 0.000356334, Final residual = 6.4316e-06, No Iterations 6
DICPCG:  Solving for pB, Initial residual = 0.000952422, Final residual = 8.13132e-06, No Iterations 9
magnetic flux divergence error = 4.44574e-11
smoothSolver:  Solving for Bx, Initial residual = 5.7513e-06, Final residual = 5.7513e-06, No Iterations 0
smoothSolver:  Solving for By, Initial residual = 6.44539e-06, Final residual = 6.44539e-06, No Iterations 0
DICPCG:  Solving for pB, Initial residual = 8.12957e-06, Final residual = 8.12957e-06, No Iterations 0
magnetic flux divergence error = 4.44574e-11
Time = 0.002

Courant Number mean: 0.00605109 max: 0.0203847
smoothSolver:  Solving for Ux, Initial residual = 0.502168, Final residual = 8.50363e-06, No Iterations 18
smoothSolver:  Solving for Uy, Initial residual = 0.283028, Final residual = 9.88188e-06, No Iterations 15
DICPCG:  Solving for p, Initial residual = 0.00608177, Final residual = 0.000282155, No Iterations 81
time step continuity errors : sum local = 2.52134e-06, global = 3.84156e-08, cumulative = 1.39495e-08
DICPCG:  Solving for p, Initial residual = 0.00440121, Final residual = 0.000187692, No Iterations 81
time step continuity errors : sum local = 7.96593e-07, global = -1.43385e-08, cumulative = -3.8908e-10
DICPCG:  Solving for p, Initial residual = 0.00363218, Final residual = 7.15452e-07, No Iterations 90
time step continuity errors : sum local = 6.58483e-10, global = -7.30707e-12, cumulative = -3.96387e-10
smoothSolver:  Solving for Bx, Initial residual = 0.289294, Final residual = 7.62375e-06, No Iterations 21
smoothSolver:  Solving for By, Initial residual = 0.0818535, Final residual = 9.85363e-06, No Iterations 15
DICPCG:  Solving for pB, Initial residual = 0.179163, Final residual = 9.88716e-06, No Iterations 73
magnetic flux divergence error = 5.96509e-11
smoothSolver:  Solving for Bx, Initial residual = 7.26115e-06, Final residual = 7.26115e-06, No Iterations 0
smoothSolver:  Solving for By, Initial residual = 5.12427e-05, Final residual = 6.8178e-06, No Iterations 3
DICPCG:  Solving for pB, Initial residual = 0.00014072, Final residual = 7.66476e-06, No Iterations 2
magnetic flux divergence error = 5.05699e-11
smoothSolver:  Solving for Bx, Initial residual = 7.26097e-06, Final residual = 7.26097e-06, No Iterations 0
smoothSolver:  Solving for By, Initial residual = 6.82064e-06, Final residual = 6.82064e-06, No Iterations 0
DICPCG:  Solving for pB, Initial residual = 7.66443e-06, Final residual = 7.66443e-06, No Iterations 0
magnetic flux divergence error = 5.05699e-11
Time = 0.003

Courant Number mean: 0.00602259 max: 0.0145244
smoothSolver:  Solving for Ux, Initial residual = 0.144852, Final residual = 6.98625e-06, No Iterations 18
smoothSolver:  Solving for Uy, Initial residual = 0.603784, Final residual = 8.07952e-06, No Iterations 15
DICPCG:  Solving for p, Initial residual = 0.0136277, Final residual = 0.000517599, No Iterations 81
time step continuity errors : sum local = 3.04321e-07, global = -5.69115e-09, cumulative = -6.08754e-09
DICPCG:  Solving for p, Initial residual = 0.00598408, Final residual = 0.000182478, No Iterations 81
time step continuity errors : sum local = 1.27265e-07, global = 2.66637e-09, cumulative = -3.42117e-09
DICPCG:  Solving for p, Initial residual = 0.00143175, Final residual = 6.51659e-07, No Iterations 88
time step continuity errors : sum local = 2.45745e-10, global = -2.48066e-12, cumulative = -3.42365e-09
smoothSolver:  Solving for Bx, Initial residual = 0.144734, Final residual = 9.36123e-06, No Iterations 17
smoothSolver:  Solving for By, Initial residual = 0.111345, Final residual = 8.23829e-06, No Iterations 16
DICPCG:  Solving for pB, Initial residual = 0.150293, Final residual = 9.73701e-06, No Iterations 73
magnetic flux divergence error = 7.47763e-11
smoothSolver:  Solving for Bx, Initial residual = 9.43667e-06, Final residual = 9.43667e-06, No Iterations 0
smoothSolver:  Solving for By, Initial residual = 8.86368e-05, Final residual = 7.87166e-06, No Iterations 3
DICPCG:  Solving for pB, Initial residual = 0.000224109, Final residual = 8.27474e-06, No Iterations 3
magnetic flux divergence error = 7.25038e-11
smoothSolver:  Solving for Bx, Initial residual = 9.43647e-06, Final residual = 9.43647e-06, No Iterations 0
smoothSolver:  Solving for By, Initial residual = 7.88486e-06, Final residual = 7.88486e-06, No Iterations 0
DICPCG:  Solving for pB, Initial residual = 8.27405e-06, Final residual = 8.27405e-06, No Iterations 0
magnetic flux divergence error = 7.25038e-11
Time = 0.004

Courant Number mean: 0.0060329 max: 0.0162354
smoothSolver:  Solving for Ux, Initial residual = 0.0425754, Final residual = 9.18616e-06, No Iterations 13
smoothSolver:  Solving for Uy, Initial residual = 0.194033, Final residual = 7.25694e-06, No Iterations 16
DICPCG:  Solving for p, Initial residual = 0.00894519, Final residual = 0.0003316, No Iterations 80
time step continuity errors : sum local = 1.14421e-07, global = 2.75524e-09, cumulative = -6.6841e-10
DICPCG:  Solving for p, Initial residual = 0.00787329, Final residual = 0.000220522, No Iterations 80
time step continuity errors : sum local = 4.71264e-08, global = -1.23846e-09, cumulative = -1.90687e-09
DICPCG:  Solving for p, Initial residual = 0.000677676, Final residual = 7.59342e-07, No Iterations 84
time step continuity errors : sum local = 1.86566e-10, global = -1.1474e-12, cumulative = -1.90801e-09
smoothSolver:  Solving for Bx, Initial residual = 0.104987, Final residual = 7.41865e-06, No Iterations 15
smoothSolver:  Solving for By, Initial residual = 0.104334, Final residual = 6.46008e-06, No Iterations 16
DICPCG:  Solving for pB, Initial residual = 0.122921, Final residual = 9.83671e-06, No Iterations 72
magnetic flux divergence error = 9.64464e-11
smoothSolver:  Solving for Bx, Initial residual = 7.48488e-06, Final residual = 7.48488e-06, No Iterations 0
smoothSolver:  Solving for By, Initial residual = 8.35783e-05, Final residual = 9.17536e-06, No Iterations 2
DICPCG:  Solving for pB, Initial residual = 0.000195633, Final residual = 8.84865e-06, No Iterations 3
magnetic flux divergence error = 9.59837e-11
smoothSolver:  Solving for Bx, Initial residual = 7.48475e-06, Final residual = 7.48475e-06, No Iterations 0
smoothSolver:  Solving for By, Initial residual = 9.18558e-06, Final residual = 9.18558e-06, No Iterations 0
DICPCG:  Solving for pB, Initial residual = 8.84821e-06, Final residual = 8.84821e-06, No Iterations 0
magnetic flux divergence error = 9.59837e-11
Time = 0.005

Courant Number mean: 0.00604015 max: 0.0160665
smoothSolver:  Solving for Ux, Initial residual = 0.0303821, Final residual = 6.18881e-06, No Iterations 12
smoothSolver:  Solving for Uy, Initial residual = 0.110905, Final residual = 9.40045e-06, No Iterations 14
DICPCG:  Solving for p, Initial residual = 0.00824086, Final residual = 0.000383756, No Iterations 77
time step continuity errors : sum local = 9.55785e-08, global = -3.85769e-09, cumulative = -5.7657e-09
DICPCG:  Solving for p, Initial residual = 0.00403524, Final residual = 0.000139721, No Iterations 4
time step continuity errors : sum local = 3.60015e-08, global = 6.70701e-09, cumulative = 9.41308e-10
DICPCG:  Solving for p, Initial residual = 0.000305076, Final residual = 9.55705e-07, No Iterations 82
time step continuity errors : sum local = 2.45695e-10, global = -1.63934e-12, cumulative = 9.39669e-10
smoothSolver:  Solving for Bx, Initial residual = 0.088101, Final residual = 8.08235e-06, No Iterations 13
smoothSolver:  Solving for By, Initial residual = 0.0929707, Final residual = 7.60419e-06, No Iterations 15
DICPCG:  Solving for pB, Initial residual = 0.101721, Final residual = 8.87881e-06, No Iterations 72
magnetic flux divergence error = 1.05067e-10
smoothSolver:  Solving for Bx, Initial residual = 7.99703e-06, Final residual = 7.99703e-06, No Iterations 0
smoothSolver:  Solving for By, Initial residual = 8.05807e-05, Final residual = 6.82339e-06, No Iterations 2
DICPCG:  Solving for pB, Initial residual = 0.000189883, Final residual = 9.23965e-06, No Iterations 3
magnetic flux divergence error = 1.1845e-10
smoothSolver:  Solving for Bx, Initial residual = 7.99687e-06, Final residual = 7.99687e-06, No Iterations 0
smoothSolver:  Solving for By, Initial residual = 6.83611e-06, Final residual = 6.83611e-06, No Iterations 0
DICPCG:  Solving for pB, Initial residual = 9.2392e-06, Final residual = 9.2392e-06, No Iterations 0
magnetic flux divergence error = 1.1845e-10
Time = 0.006

Courant Number mean: 0.00604608 max: 0.0159671
smoothSolver:  Solving for Ux, Initial residual = 0.0264948, Final residual = 4.77724e-06, No Iterations 7
smoothSolver:  Solving for Uy, Initial residual = 0.0847453, Final residual = 8.36147e-06, No Iterations 13
DICPCG:  Solving for p, Initial residual = 0.00637672, Final residual = 0.000210936, No Iterations 4
time step continuity errors : sum local = 5.35871e-08, global = -1.51121e-09, cumulative = -5.71542e-10
DICPCG:  Solving for p, Initial residual = 0.00305496, Final residual = 0.000103035, No Iterations 4
time step continuity errors : sum local = 2.61455e-08, global = -1.95071e-09, cumulative = -2.52225e-09
DICPCG:  Solving for p, Initial residual = 0.000287141, Final residual = 9.4271e-07, No Iterations 81
time step continuity errors : sum local = 2.38911e-10, global = -3.22761e-12, cumulative = -2.52548e-09
smoothSolver:  Solving for Bx, Initial residual = 0.0764483, Final residual = 9.90206e-06, No Iterations 12
smoothSolver:  Solving for By, Initial residual = 0.0816772, Final residual = 8.71115e-06, No Iterations 14
DICPCG:  Solving for pB, Initial residual = 0.0851348, Final residual = 9.25007e-06, No Iterations 71
magnetic flux divergence error = 1.26929e-10
smoothSolver:  Solving for Bx, Initial residual = 9.66728e-06, Final residual = 9.66728e-06, No Iterations 0
smoothSolver:  Solving for By, Initial residual = 7.48427e-05, Final residual = 5.63094e-06, No Iterations 2
DICPCG:  Solving for pB, Initial residual = 0.000178538, Final residual = 9.45793e-06, No Iterations 3
magnetic flux divergence error = 1.38315e-10
smoothSolver:  Solving for Bx, Initial residual = 9.66721e-06, Final residual = 9.66721e-06, No Iterations 0
smoothSolver:  Solving for By, Initial residual = 5.64538e-06, Final residual = 5.64538e-06, No Iterations 0
DICPCG:  Solving for pB, Initial residual = 9.45755e-06, Final residual = 9.45755e-06, No Iterations 0
magnetic flux divergence error = 1.38315e-10
Time = 0.007

Courant Number mean: 0.00605045 max: 0.0157877
smoothSolver:  Solving for Ux, Initial residual = 0.024275, Final residual = 6.66451e-06, No Iterations 10
smoothSolver:  Solving for Uy, Initial residual = 0.0654923, Final residual = 8.42973e-06, No Iterations 12
DICPCG:  Solving for p, Initial residual = 0.0050953, Final residual = 0.000226617, No Iterations 4
time step continuity errors : sum local = 5.75779e-08, global = -1.43108e-08, cumulative = -1.68363e-08
DICPCG:  Solving for p, Initial residual = 0.00217459, Final residual = 9.38769e-05, No Iterations 77
time step continuity errors : sum local = 2.38373e-08, global = -8.72124e-10, cumulative = -1.77084e-08
DICPCG:  Solving for p, Initial residual = 0.000209046, Final residual = 7.34285e-07, No Iterations 81
time step continuity errors : sum local = 1.88865e-10, global = 1.29485e-12, cumulative = -1.77071e-08
smoothSolver:  Solving for Bx, Initial residual = 0.0690095, Final residual = 9.58611e-06, No Iterations 12
smoothSolver:  Solving for By, Initial residual = 0.0712272, Final residual = 6.19779e-06, No Iterations 14
DICPCG:  Solving for pB, Initial residual = 0.0725926, Final residual = 9.82754e-06, No Iterations 70
magnetic flux divergence error = 1.51416e-10
smoothSolver:  Solving for Bx, Initial residual = 9.39588e-06, Final residual = 9.39588e-06, No Iterations 0
smoothSolver:  Solving for By, Initial residual = 6.61549e-05, Final residual = 4.00593e-06, No Iterations 2
DICPCG:  Solving for pB, Initial residual = 0.000158731, Final residual = 9.73533e-06, No Iterations 3
magnetic flux divergence error = 1.5762e-10
smoothSolver:  Solving for Bx, Initial residual = 9.39585e-06, Final residual = 9.39585e-06, No Iterations 0
smoothSolver:  Solving for By, Initial residual = 4.021e-06, Final residual = 4.021e-06, No Iterations 0
DICPCG:  Solving for pB, Initial residual = 9.73495e-06, Final residual = 9.73495e-06, No Iterations 0
magnetic flux divergence error = 1.5762e-10
Time = 0.008

Courant Number mean: 0.00605359 max: 0.0155991
smoothSolver:  Solving for Ux, Initial residual = 0.0221904, Final residual = 6.2541e-06, No Iterations 11
smoothSolver:  Solving for Uy, Initial residual = 0.0517231, Final residual = 9.05813e-06, No Iterations 11
DICPCG:  Solving for p, Initial residual = 0.0041173, Final residual = 0.0001999, No Iterations 77
time step continuity errors : sum local = 5.1249e-08, global = -2.05708e-09, cumulative = -1.97642e-08
DICPCG:  Solving for p, Initial residual = 0.00164769, Final residual = 6.05492e-05, No Iterations 5
time step continuity errors : sum local = 1.58512e-08, global = 4.32136e-09, cumulative = -1.54428e-08
DICPCG:  Solving for p, Initial residual = 0.00011052, Final residual = 8.2518e-07, No Iterations 81
time step continuity errors : sum local = 2.15898e-10, global = 1.27427e-12, cumulative = -1.54415e-08
smoothSolver:  Solving for Bx, Initial residual = 0.0625446, Final residual = 9.56888e-06, No Iterations 12
smoothSolver:  Solving for By, Initial residual = 0.0625346, Final residual = 7.28293e-06, No Iterations 13
DICPCG:  Solving for pB, Initial residual = 0.0660755, Final residual = 9.90343e-06, No Iterations 69
magnetic flux divergence error = 1.67218e-10
smoothSolver:  Solving for Bx, Initial residual = 9.38878e-06, Final residual = 9.38878e-06, No Iterations 0
smoothSolver:  Solving for By, Initial residual = 6.0745e-05, Final residual = 8.9113e-06, No Iterations 1
DICPCG:  Solving for pB, Initial residual = 0.000132165, Final residual = 9.73387e-06, No Iterations 3
magnetic flux divergence error = 1.71112e-10
smoothSolver:  Solving for Bx, Initial residual = 9.38884e-06, Final residual = 9.38884e-06, No Iterations 0
smoothSolver:  Solving for By, Initial residual = 8.91281e-06, Final residual = 8.91281e-06, No Iterations 0
DICPCG:  Solving for pB, Initial residual = 9.73361e-06, Final residual = 9.73361e-06, No Iterations 0
magnetic flux divergence error = 1.71112e-10
Time = 0.009

Courant Number mean: 0.00605566 max: 0.0154136
smoothSolver:  Solving for Ux, Initial residual = 0.021019, Final residual = 7.5273e-06, No Iterations 11
smoothSolver:  Solving for Uy, Initial residual = 0.041231, Final residual = 7.15733e-06, No Iterations 11
DICPCG:  Solving for p, Initial residual = 0.0035011, Final residual = 0.000126477, No Iterations 78
time step continuity errors : sum local = 3.28647e-08, global = -1.06872e-09, cumulative = -1.65103e-08
DICPCG:  Solving for p, Initial residual = 0.00118611, Final residual = 5.47197e-05, No Iterations 75
time step continuity errors : sum local = 1.46308e-08, global = 4.23536e-10, cumulative = -1.60867e-08
DICPCG:  Solving for p, Initial residual = 0.000111659, Final residual = 8.83399e-07, No Iterations 80
time step continuity errors : sum local = 2.34425e-10, global = 2.26962e-12, cumulative = -1.60845e-08
smoothSolver:  Solving for Bx, Initial residual = 0.0569271, Final residual = 9.36171e-06, No Iterations 12
smoothSolver:  Solving for By, Initial residual = 0.0550837, Final residual = 8.66623e-06, No Iterations 12
DICPCG:  Solving for pB, Initial residual = 0.0603445, Final residual = 9.96749e-06, No Iterations 68
magnetic flux divergence error = 1.81651e-10
smoothSolver:  Solving for Bx, Initial residual = 9.19785e-06, Final residual = 9.19785e-06, No Iterations 0
smoothSolver:  Solving for By, Initial residual = 5.61524e-05, Final residual = 8.4156e-06, No Iterations 1
DICPCG:  Solving for pB, Initial residual = 0.000125359, Final residual = 8.4343e-06, No Iterations 4
magnetic flux divergence error = 1.59151e-10
smoothSolver:  Solving for Bx, Initial residual = 9.19793e-06, Final residual = 9.19793e-06, No Iterations 0
smoothSolver:  Solving for By, Initial residual = 8.41645e-06, Final residual = 8.41645e-06, No Iterations 0
DICPCG:  Solving for pB, Initial residual = 8.43412e-06, Final residual = 8.43412e-06, No Iterations 0
magnetic flux divergence error = 1.59151e-10
Time = 0.01

Courant Number mean: 0.00605683 max: 0.0152371
smoothSolver:  Solving for Ux, Initial residual = 0.0192295, Final residual = 8.45744e-06, No Iterations 11
smoothSolver:  Solving for Uy, Initial residual = 0.0333663, Final residual = 7.22527e-06, No Iterations 11
DICPCG:  Solving for p, Initial residual = 0.00318625, Final residual = 0.000121887, No Iterations 78
time step continuity errors : sum local = 3.23393e-08, global = -1.02906e-09, cumulative = -1.71135e-08
DICPCG:  Solving for p, Initial residual = 0.00101631, Final residual = 4.40912e-05, No Iterations 76
time step continuity errors : sum local = 1.20498e-08, global = 1.90285e-10, cumulative = -1.69232e-08
DICPCG:  Solving for p, Initial residual = 9.13097e-05, Final residual = 8.57783e-07, No Iterations 80
time step continuity errors : sum local = 2.32608e-10, global = 8.00766e-14, cumulative = -1.69232e-08
smoothSolver:  Solving for Bx, Initial residual = 0.0519785, Final residual = 9.01285e-06, No Iterations 12
smoothSolver:  Solving for By, Initial residual = 0.0488985, Final residual = 6.37196e-06, No Iterations 12
DICPCG:  Solving for pB, Initial residual = 0.0569204, Final residual = 9.85956e-06, No Iterations 67
magnetic flux divergence error = 1.90909e-10
smoothSolver:  Solving for Bx, Initial residual = 8.86731e-06, Final residual = 8.86731e-06, No Iterations 0
smoothSolver:  Solving for By, Initial residual = 4.90188e-05, Final residual = 6.31911e-06, No Iterations 1
DICPCG:  Solving for pB, Initial residual = 0.000112391, Final residual = 8.51126e-06, No Iterations 4
magnetic flux divergence error = 1.68999e-10
smoothSolver:  Solving for Bx, Initial residual = 8.8674e-06, Final residual = 8.8674e-06, No Iterations 0
smoothSolver:  Solving for By, Initial residual = 6.31962e-06, Final residual = 6.31962e-06, No Iterations 0
DICPCG:  Solving for pB, Initial residual = 8.51114e-06, Final residual = 8.51114e-06, No Iterations 0
magnetic flux divergence error = 1.68999e-10
Time = 0.011

Courant Number mean: 0.00605718 max: 0.0150711
smoothSolver:  Solving for Ux, Initial residual = 0.0185155, Final residual = 9.15058e-06, No Iterations 11
smoothSolver:  Solving for Uy, Initial residual = 0.0279029, Final residual = 7.29861e-06, No Iterations 11
DICPCG:  Solving for p, Initial residual = 0.00299536, Final residual = 0.00011702, No Iterations 78
time step continuity errors : sum local = 3.17357e-08, global = -9.73194e-10, cumulative = -1.78963e-08
DICPCG:  Solving for p, Initial residual = 0.000927516, Final residual = 4.29044e-05, No Iterations 76
time step continuity errors : sum local = 1.20121e-08, global = 1.53217e-10, cumulative = -1.77431e-08
DICPCG:  Solving for p, Initial residual = 8.9467e-05, Final residual = 7.82868e-07, No Iterations 80
time step continuity errors : sum local = 2.1735e-10, global = -3.67262e-13, cumulative = -1.77435e-08
smoothSolver:  Solving for Bx, Initial residual = 0.0475249, Final residual = 8.59583e-06, No Iterations 12
smoothSolver:  Solving for By, Initial residual = 0.0430729, Final residual = 7.61592e-06, No Iterations 11
DICPCG:  Solving for pB, Initial residual = 0.0535916, Final residual = 9.59294e-06, No Iterations 66
magnetic flux divergence error = 1.95786e-10
smoothSolver:  Solving for Bx, Initial residual = 8.46855e-06, Final residual = 8.46855e-06, No Iterations 0
smoothSolver:  Solving for By, Initial residual = 4.56404e-05, Final residual = 6.39346e-06, No Iterations 1
DICPCG:  Solving for pB, Initial residual = 0.000107262, Final residual = 8.29037e-06, No Iterations 4
magnetic flux divergence error = 1.73787e-10
smoothSolver:  Solving for Bx, Initial residual = 8.46862e-06, Final residual = 8.46862e-06, No Iterations 0
smoothSolver:  Solving for By, Initial residual = 6.39339e-06, Final residual = 6.39339e-06, No Iterations 0
DICPCG:  Solving for pB, Initial residual = 8.29039e-06, Final residual = 8.29039e-06, No Iterations 0
magnetic flux divergence error = 1.73787e-10
Time = 0.012

Courant Number mean: 0.0060568 max: 0.0149346
smoothSolver:  Solving for Ux, Initial residual = 0.0171513, Final residual = 9.74293e-06, No Iterations 11
smoothSolver:  Solving for Uy, Initial residual = 0.0251138, Final residual = 7.60676e-06, No Iterations 11
DICPCG:  Solving for p, Initial residual = 0.00284654, Final residual = 0.000111897, No Iterations 78
time step continuity errors : sum local = 3.10761e-08, global = -9.28279e-10, cumulative = -1.86718e-08
DICPCG:  Solving for p, Initial residual = 0.000875908, Final residual = 4.0302e-05, No Iterations 76
time step continuity errors : sum local = 1.15708e-08, global = 1.26486e-10, cumulative = -1.85453e-08
DICPCG:  Solving for p, Initial residual = 8.5638e-05, Final residual = 8.02845e-07, No Iterations 79
time step continuity errors : sum local = 2.28523e-10, global = -1.00121e-12, cumulative = -1.85463e-08
smoothSolver:  Solving for Bx, Initial residual = 0.0434187, Final residual = 8.17436e-06, No Iterations 12
smoothSolver:  Solving for By, Initial residual = 0.0382887, Final residual = 8.98622e-06, No Iterations 10
DICPCG:  Solving for pB, Initial residual = 0.0508311, Final residual = 9.88838e-06, No Iterations 60
magnetic flux divergence error = 2.13031e-10
smoothSolver:  Solving for Bx, Initial residual = 8.06319e-06, Final residual = 8.06319e-06, No Iterations 0
smoothSolver:  Solving for By, Initial residual = 4.27315e-05, Final residual = 6.73641e-06, No Iterations 1
DICPCG:  Solving for pB, Initial residual = 0.000103183, Final residual = 8.31026e-06, No Iterations 4
magnetic flux divergence error = 1.83862e-10
smoothSolver:  Solving for Bx, Initial residual = 8.06327e-06, Final residual = 8.06327e-06, No Iterations 0
smoothSolver:  Solving for By, Initial residual = 6.736e-06, Final residual = 6.736e-06, No Iterations 0
DICPCG:  Solving for pB, Initial residual = 8.31025e-06, Final residual = 8.31025e-06, No Iterations 0
magnetic flux divergence error = 1.83862e-10
Time = 0.013

Courant Number mean: 0.00605577 max: 0.0148283
smoothSolver:  Solving for Ux, Initial residual = 0.0161335, Final residual = 6.30967e-06, No Iterations 12
smoothSolver:  Solving for Uy, Initial residual = 0.0245382, Final residual = 8.0803e-06, No Iterations 11
DICPCG:  Solving for p, Initial residual = 0.00272345, Final residual = 0.000107528, No Iterations 78
time step continuity errors : sum local = 3.0613e-08, global = -8.93379e-10, cumulative = -1.94397e-08
DICPCG:  Solving for p, Initial residual = 0.000836284, Final residual = 3.75701e-05, No Iterations 76
time step continuity errors : sum local = 1.10622e-08, global = 1.08775e-10, cumulative = -1.93309e-08
DICPCG:  Solving for p, Initial residual = 8.19428e-05, Final residual = 8.83167e-07, No Iterations 78
time step continuity errors : sum local = 2.57763e-10, global = 5.22017e-12, cumulative = -1.93257e-08
smoothSolver:  Solving for Bx, Initial residual = 0.0395301, Final residual = 7.78234e-06, No Iterations 12
smoothSolver:  Solving for By, Initial residual = 0.0336472, Final residual = 6.28037e-06, No Iterations 10
DICPCG:  Solving for pB, Initial residual = 0.0481204, Final residual = 9.9046e-06, No Iterations 59
magnetic flux divergence error = 2.2462e-10
smoothSolver:  Solving for Bx, Initial residual = 7.6836e-06, Final residual = 7.6836e-06, No Iterations 0
smoothSolver:  Solving for By, Initial residual = 3.61839e-05, Final residual = 4.8622e-06, No Iterations 1
DICPCG:  Solving for pB, Initial residual = 8.90405e-05, Final residual = 7.64398e-06, No Iterations 4
magnetic flux divergence error = 1.77584e-10
smoothSolver:  Solving for Bx, Initial residual = 7.68368e-06, Final residual = 7.68368e-06, No Iterations 0
smoothSolver:  Solving for By, Initial residual = 4.86148e-06, Final residual = 4.86148e-06, No Iterations 0
DICPCG:  Solving for pB, Initial residual = 7.64398e-06, Final residual = 7.64398e-06, No Iterations 0
magnetic flux divergence error = 1.77584e-10
Time = 0.014

Courant Number mean: 0.00605414 max: 0.0147296
smoothSolver:  Solving for Ux, Initial residual = 0.0160935, Final residual = 6.60158e-06, No Iterations 12
smoothSolver:  Solving for Uy, Initial residual = 0.0255663, Final residual = 8.71044e-06, No Iterations 11
DICPCG:  Solving for p, Initial residual = 0.00261087, Final residual = 0.000102752, No Iterations 78
time step continuity errors : sum local = 2.99987e-08, global = -8.65814e-10, cumulative = -2.01915e-08
DICPCG:  Solving for p, Initial residual = 0.000804494, Final residual = 3.56963e-05, No Iterations 76
time step continuity errors : sum local = 1.07847e-08, global = 1.04988e-10, cumulative = -2.00865e-08
DICPCG:  Solving for p, Initial residual = 7.91188e-05, Final residual = 6.8896e-07, No Iterations 80
time step continuity errors : sum local = 2.06308e-10, global = 2.64724e-12, cumulative = -2.00839e-08
smoothSolver:  Solving for Bx, Initial residual = 0.0357667, Final residual = 7.43526e-06, No Iterations 12
smoothSolver:  Solving for By, Initial residual = 0.0293243, Final residual = 7.14539e-06, No Iterations 9
DICPCG:  Solving for pB, Initial residual = 0.0447853, Final residual = 9.67996e-06, No Iterations 54
magnetic flux divergence error = 2.31128e-10
smoothSolver:  Solving for Bx, Initial residual = 7.34695e-06, Final residual = 7.34695e-06, No Iterations 0
smoothSolver:  Solving for By, Initial residual = 3.28069e-05, Final residual = 4.90925e-06, No Iterations 1
DICPCG:  Solving for pB, Initial residual = 8.51198e-05, Final residual = 9.78806e-06, No Iterations 2
magnetic flux divergence error = 2.40023e-10
smoothSolver:  Solving for Bx, Initial residual = 7.347e-06, Final residual = 7.347e-06, No Iterations 0
smoothSolver:  Solving for By, Initial residual = 4.90918e-06, Final residual = 4.90918e-06, No Iterations 0
DICPCG:  Solving for pB, Initial residual = 9.78801e-06, Final residual = 9.78801e-06, No Iterations 0
magnetic flux divergence error = 2.40023e-10
Time = 0.015

Courant Number mean: 0.00605198 max: 0.0146381
smoothSolver:  Solving for Ux, Initial residual = 0.01671, Final residual = 6.88047e-06, No Iterations 12
smoothSolver:  Solving for Uy, Initial residual = 0.0287449, Final residual = 9.52335e-06, No Iterations 11
DICPCG:  Solving for p, Initial residual = 0.00248095, Final residual = 9.83266e-05, No Iterations 78
time step continuity errors : sum local = 2.9446e-08, global = -8.44714e-10, cumulative = -2.09286e-08
DICPCG:  Solving for p, Initial residual = 0.000778077, Final residual = 3.48058e-05, No Iterations 76
time step continuity errors : sum local = 1.07864e-08, global = 1.18621e-10, cumulative = -2.08099e-08
DICPCG:  Solving for p, Initial residual = 7.75583e-05, Final residual = 6.81142e-07, No Iterations 80
time step continuity errors : sum local = 2.09205e-10, global = 2.50256e-12, cumulative = -2.08074e-08
smoothSolver:  Solving for Bx, Initial residual = 0.0320696, Final residual = 7.13903e-06, No Iterations 12
smoothSolver:  Solving for By, Initial residual = 0.0253967, Final residual = 9.06928e-06, No Iterations 8
DICPCG:  Solving for pB, Initial residual = 0.0413477, Final residual = 9.73849e-06, No Iterations 52
magnetic flux divergence error = 2.44981e-10
smoothSolver:  Solving for Bx, Initial residual = 7.05989e-06, Final residual = 7.05989e-06, No Iterations 0
smoothSolver:  Solving for By, Initial residual = 3.07293e-05, Final residual = 5.6238e-06, No Iterations 1
DICPCG:  Solving for pB, Initial residual = 8.30594e-05, Final residual = 9.05658e-06, No Iterations 2
magnetic flux divergence error = 2.33565e-10
smoothSolver:  Solving for Bx, Initial residual = 7.05991e-06, Final residual = 7.05991e-06, No Iterations 0
smoothSolver:  Solving for By, Initial residual = 5.62351e-06, Final residual = 5.62351e-06, No Iterations 0
DICPCG:  Solving for pB, Initial residual = 9.05656e-06, Final residual = 9.05656e-06, No Iterations 0
magnetic flux divergence error = 2.33565e-10
Time = 0.016

Courant Number mean: 0.00604933 max: 0.0145529
smoothSolver:  Solving for Ux, Initial residual = 0.0194483, Final residual = 7.1573e-06, No Iterations 12
smoothSolver:  Solving for Uy, Initial residual = 0.0336848, Final residual = 6.4808e-06, No Iterations 12
DICPCG:  Solving for p, Initial residual = 0.00239673, Final residual = 9.45294e-05, No Iterations 78
time step continuity errors : sum local = 2.90416e-08, global = -8.25861e-10, cumulative = -2.16333e-08
DICPCG:  Solving for p, Initial residual = 0.000759298, Final residual = 3.47267e-05, No Iterations 76
time step continuity errors : sum local = 1.10437e-08, global = 1.42749e-10, cumulative = -2.14906e-08
DICPCG:  Solving for p, Initial residual = 7.70911e-05, Final residual = 6.23673e-07, No Iterations 80
time step continuity errors : sum local = 1.96561e-10, global = 1.97504e-12, cumulative = -2.14886e-08
smoothSolver:  Solving for Bx, Initial residual = 0.0284066, Final residual = 6.89363e-06, No Iterations 12
smoothSolver:  Solving for By, Initial residual = 0.021596, Final residual = 6.69044e-06, No Iterations 8
DICPCG:  Solving for pB, Initial residual = 0.0377657, Final residual = 9.67611e-06, No Iterations 47
magnetic flux divergence error = 2.56045e-10
smoothSolver:  Solving for Bx, Initial residual = 6.82178e-06, Final residual = 6.82178e-06, No Iterations 0
smoothSolver:  Solving for By, Initial residual = 2.51204e-05, Final residual = 4.12861e-06, No Iterations 1
DICPCG:  Solving for pB, Initial residual = 6.71889e-05, Final residual = 8.7224e-06, No Iterations 2
magnetic flux divergence error = 2.36667e-10
smoothSolver:  Solving for Bx, Initial residual = 6.82182e-06, Final residual = 6.82182e-06, No Iterations 0
smoothSolver:  Solving for By, Initial residual = 4.12833e-06, Final residual = 4.12833e-06, No Iterations 0
DICPCG:  Solving for pB, Initial residual = 8.72242e-06, Final residual = 8.72242e-06, No Iterations 0
magnetic flux divergence error = 2.36667e-10
Time = 0.017

Courant Number mean: 0.00604628 max: 0.0144732
smoothSolver:  Solving for Ux, Initial residual = 0.021384, Final residual = 7.43466e-06, No Iterations 12
smoothSolver:  Solving for Uy, Initial residual = 0.041689, Final residual = 7.30434e-06, No Iterations 12
DICPCG:  Solving for p, Initial residual = 0.00221848, Final residual = 9.03592e-05, No Iterations 78
time step continuity errors : sum local = 2.8481e-08, global = -8.08119e-10, cumulative = -2.22967e-08
DICPCG:  Solving for p, Initial residual = 0.000739346, Final residual = 3.47598e-05, No Iterations 76
time step continuity errors : sum local = 1.13399e-08, global = 1.68875e-10, cumulative = -2.21278e-08
DICPCG:  Solving for p, Initial residual = 7.7024e-05, Final residual = 9.05201e-07, No Iterations 79
time step continuity errors : sum local = 2.92659e-10, global = 2.17538e-12, cumulative = -2.21257e-08
smoothSolver:  Solving for Bx, Initial residual = 0.0247696, Final residual = 6.69631e-06, No Iterations 12
smoothSolver:  Solving for By, Initial residual = 0.0178532, Final residual = 7.72565e-06, No Iterations 7
DICPCG:  Solving for pB, Initial residual = 0.0337195, Final residual = 9.83521e-06, No Iterations 45
magnetic flux divergence error = 2.73501e-10
smoothSolver:  Solving for Bx, Initial residual = 6.63087e-06, Final residual = 6.63087e-06, No Iterations 0
smoothSolver:  Solving for By, Initial residual = 2.29026e-05, Final residual = 4.67959e-06, No Iterations 1
DICPCG:  Solving for pB, Initial residual = 6.21197e-05, Final residual = 8.08897e-06, No Iterations 2
magnetic flux divergence error = 2.30399e-10
smoothSolver:  Solving for Bx, Initial residual = 6.63088e-06, Final residual = 6.63088e-06, No Iterations 0
smoothSolver:  Solving for By, Initial residual = 4.67937e-06, Final residual = 4.67937e-06, No Iterations 0
DICPCG:  Solving for pB, Initial residual = 8.08899e-06, Final residual = 8.08899e-06, No Iterations 0
magnetic flux divergence error = 2.30399e-10
Time = 0.018

Courant Number mean: 0.00604288 max: 0.0143981
smoothSolver:  Solving for Ux, Initial residual = 0.0239225, Final residual = 7.72067e-06, No Iterations 12
smoothSolver:  Solving for Uy, Initial residual = 0.0518916, Final residual = 8.36847e-06, No Iterations 12
DICPCG:  Solving for p, Initial residual = 0.00209849, Final residual = 8.63976e-05, No Iterations 78
time step continuity errors : sum local = 2.79338e-08, global = -7.88869e-10, cumulative = -2.29145e-08
DICPCG:  Solving for p, Initial residual = 0.000722355, Final residual = 3.48086e-05, No Iterations 76
time step continuity errors : sum local = 1.16472e-08, global = 2.11008e-10, cumulative = -2.27035e-08
DICPCG:  Solving for p, Initial residual = 7.73441e-05, Final residual = 9.11352e-07, No Iterations 79
time step continuity errors : sum local = 3.02194e-10, global = 4.07491e-12, cumulative = -2.26994e-08
smoothSolver:  Solving for Bx, Initial residual = 0.0211694, Final residual = 6.54287e-06, No Iterations 12
smoothSolver:  Solving for By, Initial residual = 0.0144156, Final residual = 9.94832e-06, No Iterations 7
DICPCG:  Solving for pB, Initial residual = 0.0300591, Final residual = 9.83132e-06, No Iterations 39
magnetic flux divergence error = 2.85999e-10
smoothSolver:  Solving for Bx, Initial residual = 6.48345e-06, Final residual = 6.48345e-06, No Iterations 0
smoothSolver:  Solving for By, Initial residual = 2.26223e-05, Final residual = 6.42984e-06, No Iterations 1
DICPCG:  Solving for pB, Initial residual = 5.8816e-05, Final residual = 7.12384e-06, No Iterations 2
magnetic flux divergence error = 2.11562e-10
smoothSolver:  Solving for Bx, Initial residual = 6.48346e-06, Final residual = 6.48346e-06, No Iterations 0
smoothSolver:  Solving for By, Initial residual = 6.42996e-06, Final residual = 6.42996e-06, No Iterations 0
DICPCG:  Solving for pB, Initial residual = 7.12387e-06, Final residual = 7.12387e-06, No Iterations 0
magnetic flux divergence error = 2.11562e-10
Time = 0.019

Courant Number mean: 0.0060392 max: 0.0143269
smoothSolver:  Solving for Ux, Initial residual = 0.0259118, Final residual = 8.01301e-06, No Iterations 12
smoothSolver:  Solving for Uy, Initial residual = 0.0638461, Final residual = 9.75912e-06, No Iterations 12
DICPCG:  Solving for p, Initial residual = 0.00193946, Final residual = 8.27344e-05, No Iterations 78
time step continuity errors : sum local = 2.74383e-08, global = -7.66617e-10, cumulative = -2.34661e-08
DICPCG:  Solving for p, Initial residual = 0.000707873, Final residual = 1.79066e-05, No Iterations 77
time step continuity errors : sum local = 6.14659e-09, global = 1.0238e-10, cumulative = -2.33637e-08
DICPCG:  Solving for p, Initial residual = 6.80291e-05, Final residual = 8.87391e-07, No Iterations 79
time step continuity errors : sum local = 3.01866e-10, global = 4.26713e-12, cumulative = -2.33594e-08
smoothSolver:  Solving for Bx, Initial residual = 0.0176296, Final residual = 6.42766e-06, No Iterations 12
smoothSolver:  Solving for By, Initial residual = 0.0114649, Final residual = 9.42341e-06, No Iterations 8
DICPCG:  Solving for pB, Initial residual = 0.027194, Final residual = 9.72145e-06, No Iterations 36
magnetic flux divergence error = 2.93754e-10
smoothSolver:  Solving for Bx, Initial residual = 6.37445e-06, Final residual = 6.37445e-06, No Iterations 0
smoothSolver:  Solving for By, Initial residual = 1.9483e-05, Final residual = 6.1254e-06, No Iterations 1
DICPCG:  Solving for pB, Initial residual = 4.96329e-05, Final residual = 9.46922e-06, No Iterations 1
magnetic flux divergence error = 2.91048e-10
smoothSolver:  Solving for Bx, Initial residual = 6.37447e-06, Final residual = 6.37447e-06, No Iterations 0
smoothSolver:  Solving for By, Initial residual = 6.12551e-06, Final residual = 6.12551e-06, No Iterations 0
DICPCG:  Solving for pB, Initial residual = 9.46926e-06, Final residual = 9.46926e-06, No Iterations 0
magnetic flux divergence error = 2.91048e-10
Time = 0.02

Courant Number mean: 0.00603535 max: 0.0142589
smoothSolver:  Solving for Ux, Initial residual = 0.0270608, Final residual = 8.3065e-06, No Iterations 12
smoothSolver:  Solving for Uy, Initial residual = 0.0779666, Final residual = 7.11022e-06, No Iterations 13
DICPCG:  Solving for p, Initial residual = 0.00180924, Final residual = 7.89833e-05, No Iterations 78
time step continuity errors : sum local = 2.68693e-08, global = -7.36198e-10, cumulative = -2.40956e-08
DICPCG:  Solving for p, Initial residual = 0.00069983, Final residual = 1.86678e-05, No Iterations 77
time step continuity errors : sum local = 6.57148e-09, global = 9.79305e-11, cumulative = -2.39977e-08
DICPCG:  Solving for p, Initial residual = 6.96215e-05, Final residual = 8.92886e-07, No Iterations 79
time step continuity errors : sum local = 3.11496e-10, global = 3.7785e-12, cumulative = -2.39939e-08
smoothSolver:  Solving for Bx, Initial residual = 0.014182, Final residual = 6.34375e-06, No Iterations 12
smoothSolver:  Solving for By, Initial residual = 0.00930726, Final residual = 7.74555e-06, No Iterations 9
DICPCG:  Solving for pB, Initial residual = 0.0248512, Final residual = 9.9919e-06, No Iterations 31
magnetic flux divergence error = 3.11232e-10
smoothSolver:  Solving for Bx, Initial residual = 6.29751e-06, Final residual = 6.29751e-06, No Iterations 0
smoothSolver:  Solving for By, Initial residual = 1.55325e-05, Final residual = 5.10909e-06, No Iterations 1
DICPCG:  Solving for pB, Initial residual = 4.01613e-05, Final residual = 8.25914e-06, No Iterations 1
magnetic flux divergence error = 2.60661e-10
smoothSolver:  Solving for Bx, Initial residual = 6.29751e-06, Final residual = 6.29751e-06, No Iterations 0
smoothSolver:  Solving for By, Initial residual = 5.10908e-06, Final residual = 5.10908e-06, No Iterations 0
DICPCG:  Solving for pB, Initial residual = 8.25917e-06, Final residual = 8.25917e-06, No Iterations 0
magnetic flux divergence error = 2.60661e-10
Time = 0.021

Courant Number mean: 0.00603152 max: 0.0141933
smoothSolver:  Solving for Ux, Initial residual = 0.0274365, Final residual = 8.59275e-06, No Iterations 12
smoothSolver:  Solving for Uy, Initial residual = 0.094115, Final residual = 8.4819e-06, No Iterations 13
DICPCG:  Solving for p, Initial residual = 0.0016722, Final residual = 7.4184e-05, No Iterations 78
time step continuity errors : sum local = 2.58773e-08, global = -6.96378e-10, cumulative = -2.46903e-08
DICPCG:  Solving for p, Initial residual = 0.00069318, Final residual = 1.89309e-05, No Iterations 77
time step continuity errors : sum local = 6.83092e-09, global = 1.12605e-10, cumulative = -2.45777e-08
DICPCG:  Solving for p, Initial residual = 6.96384e-05, Final residual = 8.44822e-07, No Iterations 79
time step continuity errors : sum local = 3.02122e-10, global = 3.83898e-12, cumulative = -2.45738e-08
smoothSolver:  Solving for Bx, Initial residual = 0.0108635, Final residual = 6.28286e-06, No Iterations 12
smoothSolver:  Solving for By, Initial residual = 0.00837903, Final residual = 9.69057e-06, No Iterations 9
DICPCG:  Solving for pB, Initial residual = 0.0226954, Final residual = 9.95994e-06, No Iterations 25
magnetic flux divergence error = 3.17802e-10
smoothSolver:  Solving for Bx, Initial residual = 6.24506e-06, Final residual = 6.24506e-06, No Iterations 0
smoothSolver:  Solving for By, Initial residual = 1.55882e-05, Final residual = 6.31283e-06, No Iterations 1
DICPCG:  Solving for pB, Initial residual = 4.14513e-05, Final residual = 7.97233e-06, No Iterations 1
magnetic flux divergence error = 2.57152e-10
smoothSolver:  Solving for Bx, Initial residual = 6.24502e-06, Final residual = 6.24502e-06, No Iterations 0
smoothSolver:  Solving for By, Initial residual = 6.313e-06, Final residual = 6.313e-06, No Iterations 0
DICPCG:  Solving for pB, Initial residual = 7.97236e-06, Final residual = 7.97236e-06, No Iterations 0
magnetic flux divergence error = 2.57152e-10
Time = 0.022

Courant Number mean: 0.00602812 max: 0.0141295
smoothSolver:  Solving for Ux, Initial residual = 0.0273591, Final residual = 8.8597e-06, No Iterations 12
smoothSolver:  Solving for Uy, Initial residual = 0.108809, Final residual = 9.92432e-06, No Iterations 13
DICPCG:  Solving for p, Initial residual = 0.00154325, Final residual = 6.86243e-05, No Iterations 78
time step continuity errors : sum local = 2.45367e-08, global = -6.48424e-10, cumulative = -2.52223e-08
DICPCG:  Solving for p, Initial residual = 0.000695071, Final residual = 1.92358e-05, No Iterations 77
time step continuity errors : sum local = 7.1121e-09, global = 1.34036e-10, cumulative = -2.50882e-08
DICPCG:  Solving for p, Initial residual = 6.96966e-05, Final residual = 8.14273e-07, No Iterations 79
time step continuity errors : sum local = 2.98403e-10, global = 3.19294e-12, cumulative = -2.5085e-08
smoothSolver:  Solving for Bx, Initial residual = 0.00821801, Final residual = 6.23507e-06, No Iterations 12
smoothSolver:  Solving for By, Initial residual = 0.00857604, Final residual = 7.172e-06, No Iterations 10
DICPCG:  Solving for pB, Initial residual = 0.0209369, Final residual = 9.40333e-06, No Iterations 14
magnetic flux divergence error = 3.05804e-10
smoothSolver:  Solving for Bx, Initial residual = 6.20741e-06, Final residual = 6.20741e-06, No Iterations 0
smoothSolver:  Solving for By, Initial residual = 1.15737e-05, Final residual = 4.7691e-06, No Iterations 1
DICPCG:  Solving for pB, Initial residual = 3.1605e-05, Final residual = 7.43812e-06, No Iterations 1
magnetic flux divergence error = 2.43864e-10
smoothSolver:  Solving for Bx, Initial residual = 6.20739e-06, Final residual = 6.20739e-06, No Iterations 0
smoothSolver:  Solving for By, Initial residual = 4.76921e-06, Final residual = 4.76921e-06, No Iterations 0
DICPCG:  Solving for pB, Initial residual = 7.43813e-06, Final residual = 7.43813e-06, No Iterations 0
magnetic flux divergence error = 2.43864e-10
Time = 0.023

Courant Number mean: 0.00602565 max: 0.0140669
smoothSolver:  Solving for Ux, Initial residual = 0.0266727, Final residual = 9.09131e-06, No Iterations 12
smoothSolver:  Solving for Uy, Initial residual = 0.119995, Final residual = 6.88333e-06, No Iterations 14
DICPCG:  Solving for p, Initial residual = 0.00147493, Final residual = 6.4634e-05, No Iterations 78
time step continuity errors : sum local = 2.36813e-08, global = -6.08763e-10, cumulative = -2.56938e-08
DICPCG:  Solving for p, Initial residual = 0.000703251, Final residual = 2.101e-05, No Iterations 77
time step continuity errors : sum local = 7.95651e-09, global = 1.71747e-10, cumulative = -2.5522e-08
DICPCG:  Solving for p, Initial residual = 7.11766e-05, Final residual = 7.74784e-07, No Iterations 79
time step continuity errors : sum local = 2.90847e-10, global = 2.74867e-12, cumulative = -2.55193e-08
smoothSolver:  Solving for Bx, Initial residual = 0.00819274, Final residual = 6.18858e-06, No Iterations 12
smoothSolver:  Solving for By, Initial residual = 0.009563, Final residual = 8.42965e-06, No Iterations 10
DICPCG:  Solving for pB, Initial residual = 0.0192455, Final residual = 9.3114e-06, No Iterations 17
magnetic flux divergence error = 3.06912e-10
smoothSolver:  Solving for Bx, Initial residual = 6.17463e-06, Final residual = 6.17463e-06, No Iterations 0
smoothSolver:  Solving for By, Initial residual = 1.19263e-05, Final residual = 5.57698e-06, No Iterations 1
DICPCG:  Solving for pB, Initial residual = 3.36905e-05, Final residual = 7.36924e-06, No Iterations 1
magnetic flux divergence error = 2.44185e-10
smoothSolver:  Solving for Bx, Initial residual = 6.17461e-06, Final residual = 6.17461e-06, No Iterations 0
smoothSolver:  Solving for By, Initial residual = 5.57718e-06, Final residual = 5.57718e-06, No Iterations 0
DICPCG:  Solving for pB, Initial residual = 7.36926e-06, Final residual = 7.36926e-06, No Iterations 0
magnetic flux divergence error = 2.44185e-10
Time = 0.024

Courant Number mean: 0.00602409 max: 0.0140051
smoothSolver:  Solving for Ux, Initial residual = 0.0250431, Final residual = 9.26735e-06, No Iterations 12
smoothSolver:  Solving for Uy, Initial residual = 0.12657, Final residual = 7.47685e-06, No Iterations 14
DICPCG:  Solving for p, Initial residual = 0.00151727, Final residual = 6.30058e-05, No Iterations 78
time step continuity errors : sum local = 2.36418e-08, global = -6.20158e-10, cumulative = -2.61395e-08
DICPCG:  Solving for p, Initial residual = 0.000716908, Final residual = 2.34601e-05, No Iterations 77
time step continuity errors : sum local = 9.09157e-09, global = 2.21862e-10, cumulative = -2.59176e-08
DICPCG:  Solving for p, Initial residual = 7.44061e-05, Final residual = 7.28723e-07, No Iterations 79
time step continuity errors : sum local = 2.79979e-10, global = 1.80081e-12, cumulative = -2.59158e-08
smoothSolver:  Solving for Bx, Initial residual = 0.00982389, Final residual = 9.97611e-06, No Iterations 11
smoothSolver:  Solving for By, Initial residual = 0.0108342, Final residual = 9.75335e-06, No Iterations 10
DICPCG:  Solving for pB, Initial residual = 0.0178598, Final residual = 8.80502e-06, No Iterations 25
magnetic flux divergence error = 2.92389e-10
smoothSolver:  Solving for Bx, Initial residual = 9.96808e-06, Final residual = 9.96808e-06, No Iterations 0
smoothSolver:  Solving for By, Initial residual = 1.30283e-05, Final residual = 6.44185e-06, No Iterations 1
DICPCG:  Solving for pB, Initial residual = 3.64495e-05, Final residual = 7.13187e-06, No Iterations 1
magnetic flux divergence error = 2.37335e-10
smoothSolver:  Solving for Bx, Initial residual = 9.96805e-06, Final residual = 9.96805e-06, No Iterations 0
smoothSolver:  Solving for By, Initial residual = 6.44209e-06, Final residual = 6.44209e-06, No Iterations 0
DICPCG:  Solving for pB, Initial residual = 7.13188e-06, Final residual = 7.13188e-06, No Iterations 0
magnetic flux divergence error = 2.37335e-10
Time = 0.025

Courant Number mean: 0.00602322 max: 0.0139438
smoothSolver:  Solving for Ux, Initial residual = 0.022688, Final residual = 9.36432e-06, No Iterations 12
smoothSolver:  Solving for Uy, Initial residual = 0.124202, Final residual = 7.72194e-06, No Iterations 14
DICPCG:  Solving for p, Initial residual = 0.00148327, Final residual = 6.10136e-05, No Iterations 78
time step continuity errors : sum local = 2.34346e-08, global = -6.03475e-10, cumulative = -2.65193e-08
DICPCG:  Solving for p, Initial residual = 0.000713662, Final residual = 2.42848e-05, No Iterations 77
time step continuity errors : sum local = 9.62615e-09, global = 2.37968e-10, cumulative = -2.62813e-08
DICPCG:  Solving for p, Initial residual = 7.44911e-05, Final residual = 6.9963e-07, No Iterations 79
time step continuity errors : sum local = 2.74999e-10, global = 2.38659e-12, cumulative = -2.62789e-08
smoothSolver:  Solving for Bx, Initial residual = 0.0110535, Final residual = 9.84625e-06, No Iterations 11
smoothSolver:  Solving for By, Initial residual = 0.0128564, Final residual = 6.8462e-06, No Iterations 11
DICPCG:  Solving for pB, Initial residual = 0.0165575, Final residual = 9.72149e-06, No Iterations 30
magnetic flux divergence error = 3.23195e-10
smoothSolver:  Solving for Bx, Initial residual = 9.86431e-06, Final residual = 9.86431e-06, No Iterations 0
smoothSolver:  Solving for By, Initial residual = 1.02609e-05, Final residual = 4.64012e-06, No Iterations 1
DICPCG:  Solving for pB, Initial residual = 3.00651e-05, Final residual = 7.15285e-06, No Iterations 1
magnetic flux divergence error = 2.37564e-10
smoothSolver:  Solving for Bx, Initial residual = 9.86427e-06, Final residual = 9.86427e-06, No Iterations 0
smoothSolver:  Solving for By, Initial residual = 4.64022e-06, Final residual = 4.64022e-06, No Iterations 0
DICPCG:  Solving for pB, Initial residual = 7.15286e-06, Final residual = 7.15286e-06, No Iterations 0
magnetic flux divergence error = 2.37564e-10
Time = 0.026

Courant Number mean: 0.00602327 max: 0.0138827
smoothSolver:  Solving for Ux, Initial residual = 0.0202231, Final residual = 9.35395e-06, No Iterations 12
smoothSolver:  Solving for Uy, Initial residual = 0.115724, Final residual = 7.48277e-06, No Iterations 14
DICPCG:  Solving for p, Initial residual = 0.0015279, Final residual = 6.29126e-05, No Iterations 78
time step continuity errors : sum local = 2.47209e-08, global = -6.426e-10, cumulative = -2.69215e-08
DICPCG:  Solving for p, Initial residual = 0.000715628, Final residual = 2.57312e-05, No Iterations 77
time step continuity errors : sum local = 1.04234e-08, global = 2.59572e-10, cumulative = -2.66619e-08
DICPCG:  Solving for p, Initial residual = 7.59203e-05, Final residual = 6.83788e-07, No Iterations 79
time step continuity errors : sum local = 2.74738e-10, global = 2.22755e-12, cumulative = -2.66597e-08
smoothSolver:  Solving for Bx, Initial residual = 0.0121146, Final residual = 9.63433e-06, No Iterations 11
smoothSolver:  Solving for By, Initial residual = 0.01551, Final residual = 7.74159e-06, No Iterations 11
DICPCG:  Solving for pB, Initial residual = 0.015591, Final residual = 9.84998e-06, No Iterations 34
magnetic flux divergence error = 3.25921e-10
smoothSolver:  Solving for Bx, Initial residual = 9.67711e-06, Final residual = 9.67711e-06, No Iterations 0
smoothSolver:  Solving for By, Initial residual = 1.16003e-05, Final residual = 5.24651e-06, No Iterations 1
DICPCG:  Solving for pB, Initial residual = 3.20943e-05, Final residual = 7.29532e-06, No Iterations 1
magnetic flux divergence error = 2.40485e-10
smoothSolver:  Solving for Bx, Initial residual = 9.67708e-06, Final residual = 9.67708e-06, No Iterations 0
smoothSolver:  Solving for By, Initial residual = 5.24671e-06, Final residual = 5.24671e-06, No Iterations 0
DICPCG:  Solving for pB, Initial residual = 7.29533e-06, Final residual = 7.29533e-06, No Iterations 0
magnetic flux divergence error = 2.40485e-10
Time = 0.027

Courant Number mean: 0.00602407 max: 0.0138219
smoothSolver:  Solving for Ux, Initial residual = 0.0177432, Final residual = 9.14284e-06, No Iterations 12
smoothSolver:  Solving for Uy, Initial residual = 0.102592, Final residual = 6.98396e-06, No Iterations 14
DICPCG:  Solving for p, Initial residual = 0.00155535, Final residual = 6.62549e-05, No Iterations 78
time step continuity errors : sum local = 2.66155e-08, global = -7.13072e-10, cumulative = -2.73728e-08
DICPCG:  Solving for p, Initial residual = 0.00071193, Final residual = 2.77087e-05, No Iterations 77
time step continuity errors : sum local = 1.14607e-08, global = 3.12541e-10, cumulative = -2.70602e-08
DICPCG:  Solving for p, Initial residual = 7.77358e-05, Final residual = 6.89115e-07, No Iterations 79
time step continuity errors : sum local = 2.82801e-10, global = 1.7948e-12, cumulative = -2.70584e-08
smoothSolver:  Solving for Bx, Initial residual = 0.0127833, Final residual = 9.31617e-06, No Iterations 11
smoothSolver:  Solving for By, Initial residual = 0.0181395, Final residual = 8.68212e-06, No Iterations 11
DICPCG:  Solving for pB, Initial residual = 0.0161449, Final residual = 9.19181e-06, No Iterations 39
magnetic flux divergence error = 3.01057e-10
smoothSolver:  Solving for Bx, Initial residual = 9.38001e-06, Final residual = 9.38001e-06, No Iterations 0
smoothSolver:  Solving for By, Initial residual = 1.29842e-05, Final residual = 5.89077e-06, No Iterations 1
DICPCG:  Solving for pB, Initial residual = 3.40426e-05, Final residual = 7.25489e-06, No Iterations 1
magnetic flux divergence error = 2.36081e-10
smoothSolver:  Solving for Bx, Initial residual = 9.37999e-06, Final residual = 9.37999e-06, No Iterations 0
smoothSolver:  Solving for By, Initial residual = 5.89092e-06, Final residual = 5.89092e-06, No Iterations 0
DICPCG:  Solving for pB, Initial residual = 7.25491e-06, Final residual = 7.25491e-06, No Iterations 0
magnetic flux divergence error = 2.36081e-10
Time = 0.028

Courant Number mean: 0.00602482 max: 0.0137613
smoothSolver:  Solving for Ux, Initial residual = 0.0150323, Final residual = 8.65007e-06, No Iterations 12
smoothSolver:  Solving for Uy, Initial residual = 0.0876269, Final residual = 6.40639e-06, No Iterations 14
DICPCG:  Solving for p, Initial residual = 0.00154304, Final residual = 6.41846e-05, No Iterations 78
time step continuity errors : sum local = 2.63389e-08, global = -7.05411e-10, cumulative = -2.77639e-08
DICPCG:  Solving for p, Initial residual = 0.000691623, Final residual = 2.83081e-05, No Iterations 77
time step continuity errors : sum local = 1.19418e-08, global = 3.46261e-10, cumulative = -2.74176e-08
DICPCG:  Solving for p, Initial residual = 7.70468e-05, Final residual = 6.70883e-07, No Iterations 79
time step continuity errors : sum local = 2.80927e-10, global = 2.01292e-12, cumulative = -2.74156e-08
smoothSolver:  Solving for Bx, Initial residual = 0.0132668, Final residual = 8.86437e-06, No Iterations 11
smoothSolver:  Solving for By, Initial residual = 0.0206164, Final residual = 9.65869e-06, No Iterations 11
DICPCG:  Solving for pB, Initial residual = 0.0172151, Final residual = 9.87005e-06, No Iterations 40
magnetic flux divergence error = 3.18268e-10
smoothSolver:  Solving for Bx, Initial residual = 8.94441e-06, Final residual = 8.94441e-06, No Iterations 0
smoothSolver:  Solving for By, Initial residual = 1.45465e-05, Final residual = 6.56673e-06, No Iterations 1
DICPCG:  Solving for pB, Initial residual = 3.65789e-05, Final residual = 7.6571e-06, No Iterations 1
magnetic flux divergence error = 2.44647e-10
smoothSolver:  Solving for Bx, Initial residual = 8.94439e-06, Final residual = 8.94439e-06, No Iterations 0
smoothSolver:  Solving for By, Initial residual = 6.56693e-06, Final residual = 6.56693e-06, No Iterations 0
DICPCG:  Solving for pB, Initial residual = 7.65712e-06, Final residual = 7.65712e-06, No Iterations 0
magnetic flux divergence error = 2.44647e-10
Time = 0.029

Courant Number mean: 0.00602559 max: 0.0137014
smoothSolver:  Solving for Ux, Initial residual = 0.0125329, Final residual = 8.0226e-06, No Iterations 12
smoothSolver:  Solving for Uy, Initial residual = 0.0732615, Final residual = 9.32238e-06, No Iterations 13
DICPCG:  Solving for p, Initial residual = 0.00155482, Final residual = 6.61636e-05, No Iterations 78
time step continuity errors : sum local = 2.77037e-08, global = -7.77915e-10, cumulative = -2.81935e-08
DICPCG:  Solving for p, Initial residual = 0.0006748, Final residual = 3.02477e-05, No Iterations 77
time step continuity errors : sum local = 1.2993e-08, global = 3.8139e-10, cumulative = -2.78121e-08
DICPCG:  Solving for p, Initial residual = 7.74398e-05, Final residual = 6.6808e-07, No Iterations 79
time step continuity errors : sum local = 2.85018e-10, global = 2.69497e-12, cumulative = -2.78094e-08
smoothSolver:  Solving for Bx, Initial residual = 0.0133282, Final residual = 8.25355e-06, No Iterations 11
smoothSolver:  Solving for By, Initial residual = 0.0228802, Final residual = 6.54835e-06, No Iterations 12
DICPCG:  Solving for pB, Initial residual = 0.0183939, Final residual = 9.94782e-06, No Iterations 44
magnetic flux divergence error = 3.14037e-10
smoothSolver:  Solving for Bx, Initial residual = 8.34424e-06, Final residual = 8.34424e-06, No Iterations 0
smoothSolver:  Solving for By, Initial residual = 1.18137e-05, Final residual = 4.60183e-06, No Iterations 1
DICPCG:  Solving for pB, Initial residual = 2.95927e-05, Final residual = 7.30153e-06, No Iterations 1
magnetic flux divergence error = 2.27708e-10
smoothSolver:  Solving for Bx, Initial residual = 8.34422e-06, Final residual = 8.34422e-06, No Iterations 0
smoothSolver:  Solving for By, Initial residual = 4.60197e-06, Final residual = 4.60197e-06, No Iterations 0
DICPCG:  Solving for pB, Initial residual = 7.30156e-06, Final residual = 7.30156e-06, No Iterations 0
magnetic flux divergence error = 2.27708e-10
Time = 0.03

Courant Number mean: 0.00602617 max: 0.0136427
smoothSolver:  Solving for Ux, Initial residual = 0.0100507, Final residual = 7.28062e-06, No Iterations 12
smoothSolver:  Solving for Uy, Initial residual = 0.0585332, Final residual = 8.18829e-06, No Iterations 13
DICPCG:  Solving for p, Initial residual = 0.00140011, Final residual = 6.21878e-05, No Iterations 78
time step continuity errors : sum local = 2.65282e-08, global = -7.27587e-10, cumulative = -2.8537e-08
DICPCG:  Solving for p, Initial residual = 0.000636462, Final residual = 3.07388e-05, No Iterations 77
time step continuity errors : sum local = 1.34191e-08, global = 3.8466e-10, cumulative = -2.81523e-08
DICPCG:  Solving for p, Initial residual = 7.42655e-05, Final residual = 6.32076e-07, No Iterations 79
time step continuity errors : sum local = 2.74229e-10, global = 2.61737e-12, cumulative = -2.81497e-08
smoothSolver:  Solving for Bx, Initial residual = 0.0130965, Final residual = 7.46369e-06, No Iterations 11
smoothSolver:  Solving for By, Initial residual = 0.024966, Final residual = 7.15354e-06, No Iterations 12
DICPCG:  Solving for pB, Initial residual = 0.0200907, Final residual = 9.60472e-06, No Iterations 46
magnetic flux divergence error = 2.95154e-10
smoothSolver:  Solving for Bx, Initial residual = 7.55944e-06, Final residual = 7.55944e-06, No Iterations 0
smoothSolver:  Solving for By, Initial residual = 1.30342e-05, Final residual = 5.03007e-06, No Iterations 1
DICPCG:  Solving for pB, Initial residual = 2.98678e-05, Final residual = 7.118e-06, No Iterations 1
magnetic flux divergence error = 2.15489e-10
smoothSolver:  Solving for Bx, Initial residual = 7.5594e-06, Final residual = 7.5594e-06, No Iterations 0
smoothSolver:  Solving for By, Initial residual = 5.03028e-06, Final residual = 5.03028e-06, No Iterations 0
DICPCG:  Solving for pB, Initial residual = 7.11802e-06, Final residual = 7.11802e-06, No Iterations 0
magnetic flux divergence error = 2.15489e-10
Time = 0.031

Courant Number mean: 0.00602659 max: 0.0135858
smoothSolver:  Solving for Ux, Initial residual = 0.00898666, Final residual = 6.39611e-06, No Iterations 12
smoothSolver:  Solving for Uy, Initial residual = 0.0467215, Final residual = 6.98581e-06, No Iterations 13
DICPCG:  Solving for p, Initial residual = 0.00131612, Final residual = 5.9552e-05, No Iterations 78
time step continuity errors : sum local = 2.58339e-08, global = -7.23689e-10, cumulative = -2.88734e-08
DICPCG:  Solving for p, Initial residual = 0.000597757, Final residual = 1.70716e-05, No Iterations 78
time step continuity errors : sum local = 7.55762e-09, global = 2.03161e-10, cumulative = -2.86703e-08
DICPCG:  Solving for p, Initial residual = 5.97286e-05, Final residual = 5.55e-07, No Iterations 79
time step continuity errors : sum local = 2.44359e-10, global = 3.42954e-12, cumulative = -2.86668e-08
smoothSolver:  Solving for Bx, Initial residual = 0.0125947, Final residual = 6.48369e-06, No Iterations 11
smoothSolver:  Solving for By, Initial residual = 0.0266629, Final residual = 7.72254e-06, No Iterations 12
DICPCG:  Solving for pB, Initial residual = 0.0217196, Final residual = 9.8492e-06, No Iterations 48
magnetic flux divergence error = 2.93089e-10
smoothSolver:  Solving for Bx, Initial residual = 6.57907e-06, Final residual = 6.57907e-06, No Iterations 0
smoothSolver:  Solving for By, Initial residual = 1.35135e-05, Final residual = 5.17882e-06, No Iterations 1
DICPCG:  Solving for pB, Initial residual = 3.08427e-05, Final residual = 7.41253e-06, No Iterations 1
magnetic flux divergence error = 2.16753e-10
smoothSolver:  Solving for Bx, Initial residual = 6.57902e-06, Final residual = 6.57902e-06, No Iterations 0
smoothSolver:  Solving for By, Initial residual = 5.17887e-06, Final residual = 5.17887e-06, No Iterations 0
DICPCG:  Solving for pB, Initial residual = 7.41255e-06, Final residual = 7.41255e-06, No Iterations 0
magnetic flux divergence error = 2.16753e-10
Time = 0.032

Courant Number mean: 0.00602668 max: 0.0135317
smoothSolver:  Solving for Ux, Initial residual = 0.00934184, Final residual = 8.7372e-06, No Iterations 11
smoothSolver:  Solving for Uy, Initial residual = 0.0377049, Final residual = 9.13899e-06, No Iterations 12
DICPCG:  Solving for p, Initial residual = 0.00114505, Final residual = 5.23027e-05, No Iterations 78
time step continuity errors : sum local = 2.30267e-08, global = -6.44688e-10, cumulative = -2.93115e-08
DICPCG:  Solving for p, Initial residual = 0.000536227, Final residual = 1.64414e-05, No Iterations 78
time step continuity errors : sum local = 7.36456e-09, global = 2.05898e-10, cumulative = -2.91056e-08
DICPCG:  Solving for p, Initial residual = 5.37958e-05, Final residual = 5.29132e-07, No Iterations 79
time step continuity errors : sum local = 2.35914e-10, global = 3.55863e-12, cumulative = -2.91021e-08
smoothSolver:  Solving for Bx, Initial residual = 0.0118253, Final residual = 8.6489e-06, No Iterations 10
smoothSolver:  Solving for By, Initial residual = 0.0266698, Final residual = 7.82247e-06, No Iterations 12
DICPCG:  Solving for pB, Initial residual = 0.0233134, Final residual = 9.79716e-06, No Iterations 52
magnetic flux divergence error = 2.81007e-10
smoothSolver:  Solving for Bx, Initial residual = 8.76747e-06, Final residual = 8.76747e-06, No Iterations 0
smoothSolver:  Solving for By, Initial residual = 1.32126e-05, Final residual = 5.07076e-06, No Iterations 1
DICPCG:  Solving for pB, Initial residual = 3.10204e-05, Final residual = 7.30082e-06, No Iterations 1
magnetic flux divergence error = 2.05325e-10
smoothSolver:  Solving for Bx, Initial residual = 8.76742e-06, Final residual = 8.76742e-06, No Iterations 0
smoothSolver:  Solving for By, Initial residual = 5.07079e-06, Final residual = 5.07079e-06, No Iterations 0
DICPCG:  Solving for pB, Initial residual = 7.30083e-06, Final residual = 7.30083e-06, No Iterations 0
magnetic flux divergence error = 2.05325e-10
Time = 0.033

Courant Number mean: 0.00602645 max: 0.0134814
smoothSolver:  Solving for Ux, Initial residual = 0.0100363, Final residual = 6.8799e-06, No Iterations 11
smoothSolver:  Solving for Uy, Initial residual = 0.034031, Final residual = 6.73602e-06, No Iterations 12
DICPCG:  Solving for p, Initial residual = 0.0010103, Final residual = 4.53473e-05, No Iterations 78
time step continuity errors : sum local = 2.0218e-08, global = -5.72915e-10, cumulative = -2.9675e-08
DICPCG:  Solving for p, Initial residual = 0.00046776, Final residual = 1.56131e-05, No Iterations 78
time step continuity errors : sum local = 7.05821e-09, global = 2.07651e-10, cumulative = -2.94673e-08
DICPCG:  Solving for p, Initial residual = 4.6949e-05, Final residual = 5.02912e-07, No Iterations 79
time step continuity errors : sum local = 2.2651e-10, global = 3.55233e-12, cumulative = -2.94638e-08
smoothSolver:  Solving for Bx, Initial residual = 0.0108575, Final residual = 6.47997e-06, No Iterations 10
smoothSolver:  Solving for By, Initial residual = 0.0251567, Final residual = 7.49956e-06, No Iterations 12
DICPCG:  Solving for pB, Initial residual = 0.0248695, Final residual = 9.89711e-06, No Iterations 53
magnetic flux divergence error = 2.72698e-10
smoothSolver:  Solving for Bx, Initial residual = 6.57967e-06, Final residual = 6.57967e-06, No Iterations 0
smoothSolver:  Solving for By, Initial residual = 1.26194e-05, Final residual = 4.87631e-06, No Iterations 1
DICPCG:  Solving for pB, Initial residual = 3.1078e-05, Final residual = 7.34178e-06, No Iterations 1
magnetic flux divergence error = 1.98104e-10
smoothSolver:  Solving for Bx, Initial residual = 6.57962e-06, Final residual = 6.57962e-06, No Iterations 0
smoothSolver:  Solving for By, Initial residual = 4.87633e-06, Final residual = 4.87633e-06, No Iterations 0
DICPCG:  Solving for pB, Initial residual = 7.34178e-06, Final residual = 7.34178e-06, No Iterations 0
magnetic flux divergence error = 1.98104e-10
Time = 0.034

Courant Number mean: 0.00602594 max: 0.0134466
smoothSolver:  Solving for Ux, Initial residual = 0.0109092, Final residual = 7.86518e-06, No Iterations 10
smoothSolver:  Solving for Uy, Initial residual = 0.0354631, Final residual = 6.87073e-06, No Iterations 11
DICPCG:  Solving for p, Initial residual = 0.000876808, Final residual = 4.09844e-05, No Iterations 78
time step continuity errors : sum local = 1.84594e-08, global = -5.51229e-10, cumulative = -3.0015e-08
DICPCG:  Solving for p, Initial residual = 0.000394634, Final residual = 1.52047e-05, No Iterations 78
time step continuity errors : sum local = 6.91891e-09, global = 2.09042e-10, cumulative = -2.9806e-08
DICPCG:  Solving for p, Initial residual = 3.97892e-05, Final residual = 9.57999e-07, No Iterations 78
time step continuity errors : sum local = 4.34742e-10, global = 5.29686e-12, cumulative = -2.98007e-08
smoothSolver:  Solving for Bx, Initial residual = 0.00974971, Final residual = 6.61001e-06, No Iterations 9
smoothSolver:  Solving for By, Initial residual = 0.0231078, Final residual = 7.02283e-06, No Iterations 12
DICPCG:  Solving for pB, Initial residual = 0.0262034, Final residual = 9.74406e-06, No Iterations 54
magnetic flux divergence error = 2.5735e-10
smoothSolver:  Solving for Bx, Initial residual = 6.7075e-06, Final residual = 6.7075e-06, No Iterations 0
smoothSolver:  Solving for By, Initial residual = 1.1727e-05, Final residual = 4.58228e-06, No Iterations 1
DICPCG:  Solving for pB, Initial residual = 3.03442e-05, Final residual = 7.33459e-06, No Iterations 1
magnetic flux divergence error = 1.89517e-10
smoothSolver:  Solving for Bx, Initial residual = 6.70747e-06, Final residual = 6.70747e-06, No Iterations 0
smoothSolver:  Solving for By, Initial residual = 4.58227e-06, Final residual = 4.58227e-06, No Iterations 0
DICPCG:  Solving for pB, Initial residual = 7.33458e-06, Final residual = 7.33458e-06, No Iterations 0
magnetic flux divergence error = 1.89517e-10
Time = 0.035

Courant Number mean: 0.00602519 max: 0.0134205
smoothSolver:  Solving for Ux, Initial residual = 0.0116255, Final residual = 6.9737e-06, No Iterations 9
smoothSolver:  Solving for Uy, Initial residual = 0.0395295, Final residual = 9.27267e-06, No Iterations 9
DICPCG:  Solving for p, Initial residual = 0.000755853, Final residual = 2.15154e-05, No Iterations 79
time step continuity errors : sum local = 9.7637e-09, global = -2.63807e-10, cumulative = -3.00645e-08
DICPCG:  Solving for p, Initial residual = 0.000316451, Final residual = 1.42208e-05, No Iterations 78
time step continuity errors : sum local = 6.49511e-09, global = 2.11862e-10, cumulative = -2.98526e-08
DICPCG:  Solving for p, Initial residual = 2.89642e-05, Final residual = 9.62028e-07, No Iterations 78
time step continuity errors : sum local = 4.38648e-10, global = 8.07573e-12, cumulative = -2.98445e-08
smoothSolver:  Solving for Bx, Initial residual = 0.00858747, Final residual = 6.3878e-06, No Iterations 7
smoothSolver:  Solving for By, Initial residual = 0.0206742, Final residual = 6.41023e-06, No Iterations 12
DICPCG:  Solving for pB, Initial residual = 0.0271282, Final residual = 9.86656e-06, No Iterations 58
magnetic flux divergence error = 2.49354e-10
smoothSolver:  Solving for Bx, Initial residual = 6.477e-06, Final residual = 6.477e-06, No Iterations 0
smoothSolver:  Solving for By, Initial residual = 1.0605e-05, Final residual = 4.21174e-06, No Iterations 1
DICPCG:  Solving for pB, Initial residual = 2.94972e-05, Final residual = 7.27972e-06, No Iterations 1
magnetic flux divergence error = 1.79857e-10
smoothSolver:  Solving for Bx, Initial residual = 6.47695e-06, Final residual = 6.47695e-06, No Iterations 0
smoothSolver:  Solving for By, Initial residual = 4.21175e-06, Final residual = 4.21175e-06, No Iterations 0
DICPCG:  Solving for pB, Initial residual = 7.27971e-06, Final residual = 7.27971e-06, No Iterations 0
magnetic flux divergence error = 1.79857e-10
Time = 0.036

Courant Number mean: 0.00602431 max: 0.0133985
smoothSolver:  Solving for Ux, Initial residual = 0.0121698, Final residual = 4.88178e-06, No Iterations 6
smoothSolver:  Solving for Uy, Initial residual = 0.0461154, Final residual = 6.7537e-06, No Iterations 11
DICPCG:  Solving for p, Initial residual = 0.000634843, Final residual = 1.91008e-05, No Iterations 79
time step continuity errors : sum local = 8.70877e-09, global = -2.60752e-10, cumulative = -3.01053e-08
DICPCG:  Solving for p, Initial residual = 0.000269203, Final residual = 1.28023e-05, No Iterations 78
time step continuity errors : sum local = 5.85169e-09, global = 2.25594e-10, cumulative = -2.98797e-08
DICPCG:  Solving for p, Initial residual = 2.22375e-05, Final residual = 8.16249e-07, No Iterations 78
time step continuity errors : sum local = 3.72862e-10, global = 7.34478e-12, cumulative = -2.98723e-08
smoothSolver:  Solving for Bx, Initial residual = 0.0074307, Final residual = 8.92006e-06, No Iterations 6
smoothSolver:  Solving for By, Initial residual = 0.0180894, Final residual = 9.27082e-06, No Iterations 11
DICPCG:  Solving for pB, Initial residual = 0.0276037, Final residual = 9.95776e-06, No Iterations 58
magnetic flux divergence error = 2.4061e-10
smoothSolver:  Solving for Bx, Initial residual = 9.01726e-06, Final residual = 9.01726e-06, No Iterations 0
smoothSolver:  Solving for By, Initial residual = 1.28216e-05, Final residual = 5.9152e-06, No Iterations 1
DICPCG:  Solving for pB, Initial residual = 3.67608e-05, Final residual = 7.68287e-06, No Iterations 1
magnetic flux divergence error = 1.81467e-10
smoothSolver:  Solving for Bx, Initial residual = 9.01721e-06, Final residual = 9.01721e-06, No Iterations 0
smoothSolver:  Solving for By, Initial residual = 5.91518e-06, Final residual = 5.91518e-06, No Iterations 0
DICPCG:  Solving for pB, Initial residual = 7.68283e-06, Final residual = 7.68283e-06, No Iterations 0
magnetic flux divergence error = 1.81467e-10
Time = 0.037

Courant Number mean: 0.00602335 max: 0.0133816
smoothSolver:  Solving for Ux, Initial residual = 0.0126491, Final residual = 8.85637e-06, No Iterations 8
smoothSolver:  Solving for Uy, Initial residual = 0.0543181, Final residual = 6.75964e-06, No Iterations 12
DICPCG:  Solving for p, Initial residual = 0.000580908, Final residual = 2.89493e-05, No Iterations 7
time step continuity errors : sum local = 1.32229e-08, global = 2.6053e-09, cumulative = -2.7267e-08
DICPCG:  Solving for p, Initial residual = 0.000272063, Final residual = 1.29698e-05, No Iterations 69
time step continuity errors : sum local = 5.92444e-09, global = 4.7937e-11, cumulative = -2.72191e-08
DICPCG:  Solving for p, Initial residual = 2.50445e-05, Final residual = 7.28617e-07, No Iterations 74
time step continuity errors : sum local = 3.32398e-10, global = -3.77732e-12, cumulative = -2.72229e-08
smoothSolver:  Solving for Bx, Initial residual = 0.00705907, Final residual = 6.1906e-06, No Iterations 9
smoothSolver:  Solving for By, Initial residual = 0.0153418, Final residual = 7.99606e-06, No Iterations 11
DICPCG:  Solving for pB, Initial residual = 0.0276549, Final residual = 9.78865e-06, No Iterations 53
magnetic flux divergence error = 2.26258e-10
smoothSolver:  Solving for Bx, Initial residual = 6.2585e-06, Final residual = 6.2585e-06, No Iterations 0
smoothSolver:  Solving for By, Initial residual = 1.10675e-05, Final residual = 5.13201e-06, No Iterations 1
DICPCG:  Solving for pB, Initial residual = 3.44765e-05, Final residual = 7.24889e-06, No Iterations 1
magnetic flux divergence error = 1.63891e-10
smoothSolver:  Solving for Bx, Initial residual = 6.25847e-06, Final residual = 6.25847e-06, No Iterations 0
smoothSolver:  Solving for By, Initial residual = 5.13203e-06, Final residual = 5.13203e-06, No Iterations 0
DICPCG:  Solving for pB, Initial residual = 7.24885e-06, Final residual = 7.24885e-06, No Iterations 0
magnetic flux divergence error = 1.63891e-10
Time = 0.038

Courant Number mean: 0.00602231 max: 0.013369
smoothSolver:  Solving for Ux, Initial residual = 0.0134247, Final residual = 6.81905e-06, No Iterations 10
smoothSolver:  Solving for Uy, Initial residual = 0.064001, Final residual = 9.81772e-06, No Iterations 12
DICPCG:  Solving for p, Initial residual = 0.000574803, Final residual = 2.40262e-05, No Iterations 75
time step continuity errors : sum local = 1.0963e-08, global = 3.12892e-10, cumulative = -2.691e-08
DICPCG:  Solving for p, Initial residual = 0.000296752, Final residual = 1.11498e-05, No Iterations 73
time step continuity errors : sum local = 5.06274e-09, global = -1.70112e-10, cumulative = -2.70801e-08
DICPCG:  Solving for p, Initial residual = 2.3241e-05, Final residual = 8.82059e-07, No Iterations 70
time step continuity errors : sum local = 4.01076e-10, global = -1.51181e-11, cumulative = -2.70952e-08
smoothSolver:  Solving for Bx, Initial residual = 0.00724755, Final residual = 6.19181e-06, No Iterations 10
smoothSolver:  Solving for By, Initial residual = 0.0126314, Final residual = 6.66172e-06, No Iterations 11
DICPCG:  Solving for pB, Initial residual = 0.0272419, Final residual = 9.88887e-06, No Iterations 53
magnetic flux divergence error = 2.19091e-10
smoothSolver:  Solving for Bx, Initial residual = 6.2508e-06, Final residual = 6.2508e-06, No Iterations 0
smoothSolver:  Solving for By, Initial residual = 9.23579e-06, Final residual = 9.23579e-06, No Iterations 0
DICPCG:  Solving for pB, Initial residual = 1.00957e-05, Final residual = 5.77464e-06, No Iterations 1
magnetic flux divergence error = 1.25319e-10
smoothSolver:  Solving for Bx, Initial residual = 6.25078e-06, Final residual = 6.25078e-06, No Iterations 0
smoothSolver:  Solving for By, Initial residual = 9.23579e-06, Final residual = 9.23579e-06, No Iterations 0
DICPCG:  Solving for pB, Initial residual = 5.77463e-06, Final residual = 5.77463e-06, No Iterations 0
magnetic flux divergence error = 1.25319e-10
Time = 0.039

Courant Number mean: 0.00602124 max: 0.0133611
smoothSolver:  Solving for Ux, Initial residual = 0.013646, Final residual = 9.85669e-06, No Iterations 10
smoothSolver:  Solving for Uy, Initial residual = 0.073377, Final residual = 7.97496e-06, No Iterations 13
DICPCG:  Solving for p, Initial residual = 0.000603318, Final residual = 2.94777e-05, No Iterations 76
time step continuity errors : sum local = 1.34022e-08, global = 1.32241e-10, cumulative = -2.6963e-08
DICPCG:  Solving for p, Initial residual = 0.000342776, Final residual = 1.21828e-05, No Iterations 75
time step continuity errors : sum local = 5.49233e-09, global = -1.80628e-10, cumulative = -2.71436e-08
DICPCG:  Solving for p, Initial residual = 3.05567e-05, Final residual = 9.94447e-07, No Iterations 77
time step continuity errors : sum local = 4.4939e-10, global = 5.96544e-12, cumulative = -2.71376e-08
smoothSolver:  Solving for Bx, Initial residual = 0.00718213, Final residual = 8.28865e-06, No Iterations 10
smoothSolver:  Solving for By, Initial residual = 0.010121, Final residual = 8.71107e-06, No Iterations 10
DICPCG:  Solving for pB, Initial residual = 0.0264129, Final residual = 9.82249e-06, No Iterations 52
magnetic flux divergence error = 2.09294e-10
smoothSolver:  Solving for Bx, Initial residual = 8.34731e-06, Final residual = 8.34731e-06, No Iterations 0
smoothSolver:  Solving for By, Initial residual = 1.07157e-05, Final residual = 5.49601e-06, No Iterations 1
DICPCG:  Solving for pB, Initial residual = 3.76168e-05, Final residual = 7.17852e-06, No Iterations 1
magnetic flux divergence error = 1.50131e-10
smoothSolver:  Solving for Bx, Initial residual = 8.3473e-06, Final residual = 8.3473e-06, No Iterations 0
smoothSolver:  Solving for By, Initial residual = 5.49607e-06, Final residual = 5.49607e-06, No Iterations 0
DICPCG:  Solving for pB, Initial residual = 7.17846e-06, Final residual = 7.17846e-06, No Iterations 0
magnetic flux divergence error = 1.50131e-10
Time = 0.04

Courant Number mean: 0.00602017 max: 0.0133583
smoothSolver:  Solving for Ux, Initial residual = 0.0134892, Final residual = 7.58364e-06, No Iterations 11
smoothSolver:  Solving for Uy, Initial residual = 0.0816873, Final residual = 9.76838e-06, No Iterations 13
DICPCG:  Solving for p, Initial residual = 0.000652338, Final residual = 1.94667e-05, No Iterations 77
time step continuity errors : sum local = 8.79613e-09, global = 1.22717e-10, cumulative = -2.70149e-08
DICPCG:  Solving for p, Initial residual = 0.000380183, Final residual = 1.63097e-05, No Iterations 75
time step continuity errors : sum local = 7.28617e-09, global = -2.08145e-10, cumulative = -2.72231e-08
DICPCG:  Solving for p, Initial residual = 3.68658e-05, Final residual = 6.26272e-07, No Iterations 78
time step continuity errors : sum local = 2.80669e-10, global = 1.48851e-12, cumulative = -2.72216e-08
smoothSolver:  Solving for Bx, Initial residual = 0.00722355, Final residual = 6.14501e-06, No Iterations 11
smoothSolver:  Solving for By, Initial residual = 0.0080296, Final residual = 6.74143e-06, No Iterations 10
[...]
smoothSolver:  Solving for Uy, Initial residual = 5.63193e-05, Final residual = 5.26047e-06, No Iterations 1
DICPCG:  Solving for p, Initial residual = 1.5314e-06, Final residual = 9.82578e-07, No Iterations 67
time step continuity errors : sum local = 4.11546e-10, global = -1.48035e-11, cumulative = -8.73463e-08
DICPCG:  Solving for p, Initial residual = 1.2661e-06, Final residual = 7.57816e-07, No Iterations 1
time step continuity errors : sum local = 3.17387e-10, global = -1.59201e-11, cumulative = -8.73622e-08
DICPCG:  Solving for p, Initial residual = 9.16613e-07, Final residual = 9.16613e-07, No Iterations 0
time step continuity errors : sum local = 3.83895e-10, global = -1.63701e-11, cumulative = -8.73786e-08
smoothSolver:  Solving for Bx, Initial residual = 7.85407e-06, Final residual = 7.85407e-06, No Iterations 0
smoothSolver:  Solving for By, Initial residual = 1.235e-05, Final residual = 6.58612e-07, No Iterations 1
DICPCG:  Solving for pB, Initial residual = 2.71302e-05, Final residual = 8.97792e-06, No Iterations 4
magnetic flux divergence error = 6.13241e-10
smoothSolver:  Solving for Bx, Initial residual = 7.8541e-06, Final residual = 7.8541e-06, No Iterations 0
smoothSolver:  Solving for By, Initial residual = 6.58599e-07, Final residual = 6.58599e-07, No Iterations 0
DICPCG:  Solving for pB, Initial residual = 8.97774e-06, Final residual = 8.97774e-06, No Iterations 0
magnetic flux divergence error = 6.13241e-10
smoothSolver:  Solving for Bx, Initial residual = 7.8541e-06, Final residual = 7.8541e-06, No Iterations 0
smoothSolver:  Solving for By, Initial residual = 6.58599e-07, Final residual = 6.58599e-07, No Iterations 0
DICPCG:  Solving for pB, Initial residual = 8.97774e-06, Final residual = 8.97774e-06, No Iterations 0
magnetic flux divergence error = 6.13241e-10
Time = 1.992

Courant Number mean: 0.00601667 max: 0.0134361
smoothSolver:  Solving for Ux, Initial residual = 9.79674e-07, Final residual = 9.79674e-07, No Iterations 0
smoothSolver:  Solving for Uy, Initial residual = 5.08365e-05, Final residual = 6.71323e-06, No Iterations 1
DICPCG:  Solving for p, Initial residual = 1.87049e-06, Final residual = 8.59132e-07, No Iterations 8
time step continuity errors : sum local = 3.5982e-10, global = -2.80218e-11, cumulative = -8.74066e-08
DICPCG:  Solving for p, Initial residual = 1.28016e-06, Final residual = 6.53636e-07, No Iterations 1
time step continuity errors : sum local = 2.73755e-10, global = -3.0889e-11, cumulative = -8.74375e-08
DICPCG:  Solving for p, Initial residual = 8.09424e-07, Final residual = 8.09424e-07, No Iterations 0
time step continuity errors : sum local = 3.39002e-10, global = -3.18016e-11, cumulative = -8.74693e-08
smoothSolver:  Solving for Bx, Initial residual = 7.86471e-06, Final residual = 7.86471e-06, No Iterations 0
smoothSolver:  Solving for By, Initial residual = 1.23123e-05, Final residual = 6.53261e-07, No Iterations 1
DICPCG:  Solving for pB, Initial residual = 2.76897e-05, Final residual = 8.47052e-06, No Iterations 4
magnetic flux divergence error = 5.78606e-10
smoothSolver:  Solving for Bx, Initial residual = 7.86471e-06, Final residual = 7.86471e-06, No Iterations 0
smoothSolver:  Solving for By, Initial residual = 6.53248e-07, Final residual = 6.53248e-07, No Iterations 0
DICPCG:  Solving for pB, Initial residual = 8.47035e-06, Final residual = 8.47035e-06, No Iterations 0
magnetic flux divergence error = 5.78606e-10
smoothSolver:  Solving for Bx, Initial residual = 7.86471e-06, Final residual = 7.86471e-06, No Iterations 0
smoothSolver:  Solving for By, Initial residual = 6.53248e-07, Final residual = 6.53248e-07, No Iterations 0
DICPCG:  Solving for pB, Initial residual = 8.47035e-06, Final residual = 8.47035e-06, No Iterations 0
magnetic flux divergence error = 5.78606e-10
Time = 1.993

Courant Number mean: 0.00601666 max: 0.0134361
smoothSolver:  Solving for Ux, Initial residual = 9.22122e-07, Final residual = 9.22122e-07, No Iterations 0
smoothSolver:  Solving for Uy, Initial residual = 6.67704e-05, Final residual = 8.501e-06, No Iterations 1
DICPCG:  Solving for p, Initial residual = 1.87653e-06, Final residual = 9.7782e-07, No Iterations 25
time step continuity errors : sum local = 4.09529e-10, global = -8.34465e-11, cumulative = -8.75527e-08
DICPCG:  Solving for p, Initial residual = 1.42587e-06, Final residual = 7.83969e-07, No Iterations 1
time step continuity errors : sum local = 3.28342e-10, global = -9.55511e-11, cumulative = -8.76483e-08
DICPCG:  Solving for p, Initial residual = 9.22688e-07, Final residual = 9.22688e-07, No Iterations 0
time step continuity errors : sum local = 3.8644e-10, global = -9.9837e-11, cumulative = -8.77481e-08
smoothSolver:  Solving for Bx, Initial residual = 7.86297e-06, Final residual = 7.86297e-06, No Iterations 0
smoothSolver:  Solving for By, Initial residual = 1.23138e-05, Final residual = 6.54797e-07, No Iterations 1
DICPCG:  Solving for pB, Initial residual = 2.68469e-05, Final residual = 8.84175e-06, No Iterations 4
magnetic flux divergence error = 6.03989e-10
smoothSolver:  Solving for Bx, Initial residual = 7.86301e-06, Final residual = 7.86301e-06, No Iterations 0
smoothSolver:  Solving for By, Initial residual = 6.54784e-07, Final residual = 6.54784e-07, No Iterations 0
DICPCG:  Solving for pB, Initial residual = 8.84157e-06, Final residual = 8.84157e-06, No Iterations 0
magnetic flux divergence error = 6.03989e-10
smoothSolver:  Solving for Bx, Initial residual = 7.86301e-06, Final residual = 7.86301e-06, No Iterations 0
smoothSolver:  Solving for By, Initial residual = 6.54784e-07, Final residual = 6.54784e-07, No Iterations 0
DICPCG:  Solving for pB, Initial residual = 8.84157e-06, Final residual = 8.84157e-06, No Iterations 0
magnetic flux divergence error = 6.03989e-10
Time = 1.994

Courant Number mean: 0.00601666 max: 0.0134361
smoothSolver:  Solving for Ux, Initial residual = 9.84979e-07, Final residual = 9.84979e-07, No Iterations 0
smoothSolver:  Solving for Uy, Initial residual = 5.70034e-05, Final residual = 7.64226e-06, No Iterations 1
DICPCG:  Solving for p, Initial residual = 1.97181e-06, Final residual = 9.16106e-07, No Iterations 16
time step continuity errors : sum local = 3.83683e-10, global = -1.05988e-10, cumulative = -8.78541e-08
DICPCG:  Solving for p, Initial residual = 1.36681e-06, Final residual = 8.29192e-07, No Iterations 1
time step continuity errors : sum local = 3.47284e-10, global = -1.08233e-10, cumulative = -8.79623e-08
DICPCG:  Solving for p, Initial residual = 1.02532e-06, Final residual = 7.86043e-07, No Iterations 1
time step continuity errors : sum local = 3.29212e-10, global = -1.10048e-10, cumulative = -8.80724e-08
smoothSolver:  Solving for Bx, Initial residual = 7.86376e-06, Final residual = 7.86376e-06, No Iterations 0
smoothSolver:  Solving for By, Initial residual = 1.22557e-05, Final residual = 6.51977e-07, No Iterations 1
DICPCG:  Solving for pB, Initial residual = 2.7435e-05, Final residual = 8.46125e-06, No Iterations 4
magnetic flux divergence error = 5.7802e-10
smoothSolver:  Solving for Bx, Initial residual = 7.86377e-06, Final residual = 7.86377e-06, No Iterations 0
smoothSolver:  Solving for By, Initial residual = 6.51964e-07, Final residual = 6.51964e-07, No Iterations 0
DICPCG:  Solving for pB, Initial residual = 8.46108e-06, Final residual = 8.46108e-06, No Iterations 0
magnetic flux divergence error = 5.7802e-10
smoothSolver:  Solving for Bx, Initial residual = 7.86377e-06, Final residual = 7.86377e-06, No Iterations 0
smoothSolver:  Solving for By, Initial residual = 6.51964e-07, Final residual = 6.51964e-07, No Iterations 0
DICPCG:  Solving for pB, Initial residual = 8.46108e-06, Final residual = 8.46108e-06, No Iterations 0
magnetic flux divergence error = 5.7802e-10
Time = 1.995

Courant Number mean: 0.00601666 max: 0.0134361
smoothSolver:  Solving for Ux, Initial residual = 9.92604e-07, Final residual = 9.92604e-07, No Iterations 0
smoothSolver:  Solving for Uy, Initial residual = 6.92695e-05, Final residual = 7.6925e-06, No Iterations 2
DICPCG:  Solving for p, Initial residual = 2.39982e-06, Final residual = 9.6957e-07, No Iterations 47
time step continuity errors : sum local = 4.06077e-10, global = 1.77855e-11, cumulative = -8.80546e-08
DICPCG:  Solving for p, Initial residual = 1.64654e-06, Final residual = 6.38598e-07, No Iterations 1
time step continuity errors : sum local = 2.67471e-10, global = 4.81243e-11, cumulative = -8.80065e-08
DICPCG:  Solving for p, Initial residual = 7.02543e-07, Final residual = 7.02543e-07, No Iterations 0
time step continuity errors : sum local = 2.94253e-10, global = 5.86854e-11, cumulative = -8.79478e-08
smoothSolver:  Solving for Bx, Initial residual = 7.90283e-06, Final residual = 7.90283e-06, No Iterations 0
smoothSolver:  Solving for By, Initial residual = 1.22621e-05, Final residual = 6.50801e-07, No Iterations 1
DICPCG:  Solving for pB, Initial residual = 2.66528e-05, Final residual = 8.71411e-06, No Iterations 4
magnetic flux divergence error = 5.95318e-10
smoothSolver:  Solving for Bx, Initial residual = 7.90286e-06, Final residual = 7.90286e-06, No Iterations 0
smoothSolver:  Solving for By, Initial residual = 6.50788e-07, Final residual = 6.50788e-07, No Iterations 0
DICPCG:  Solving for pB, Initial residual = 8.71393e-06, Final residual = 8.71393e-06, No Iterations 0
magnetic flux divergence error = 5.95318e-10
smoothSolver:  Solving for Bx, Initial residual = 7.90286e-06, Final residual = 7.90286e-06, No Iterations 0
smoothSolver:  Solving for By, Initial residual = 6.50788e-07, Final residual = 6.50788e-07, No Iterations 0
DICPCG:  Solving for pB, Initial residual = 8.71393e-06, Final residual = 8.71393e-06, No Iterations 0
magnetic flux divergence error = 5.95318e-10
Time = 1.996

Courant Number mean: 0.00601667 max: 0.0134361
smoothSolver:  Solving for Ux, Initial residual = 2.06006e-06, Final residual = 2.06006e-06, No Iterations 0
smoothSolver:  Solving for Uy, Initial residual = 5.75531e-05, Final residual = 4.78637e-06, No Iterations 1
DICPCG:  Solving for p, Initial residual = 1.57432e-06, Final residual = 9.2199e-07, No Iterations 31
time step continuity errors : sum local = 3.86166e-10, global = 5.7015e-11, cumulative = -8.78908e-08
DICPCG:  Solving for p, Initial residual = 1.16616e-06, Final residual = 8.12068e-07, No Iterations 1
time step continuity errors : sum local = 3.40123e-10, global = 5.45933e-11, cumulative = -8.78362e-08
DICPCG:  Solving for p, Initial residual = 9.68796e-07, Final residual = 9.68796e-07, No Iterations 0
time step continuity errors : sum local = 4.05766e-10, global = 5.40562e-11, cumulative = -8.77821e-08
smoothSolver:  Solving for Bx, Initial residual = 7.88908e-06, Final residual = 7.88908e-06, No Iterations 0
smoothSolver:  Solving for By, Initial residual = 1.22865e-05, Final residual = 6.53884e-07, No Iterations 1
DICPCG:  Solving for pB, Initial residual = 2.73105e-05, Final residual = 8.43319e-06, No Iterations 4
magnetic flux divergence error = 5.76149e-10
smoothSolver:  Solving for Bx, Initial residual = 7.88909e-06, Final residual = 7.88909e-06, No Iterations 0
smoothSolver:  Solving for By, Initial residual = 6.53871e-07, Final residual = 6.53871e-07, No Iterations 0
DICPCG:  Solving for pB, Initial residual = 8.43302e-06, Final residual = 8.43302e-06, No Iterations 0
magnetic flux divergence error = 5.76149e-10
smoothSolver:  Solving for Bx, Initial residual = 7.88909e-06, Final residual = 7.88909e-06, No Iterations 0
smoothSolver:  Solving for By, Initial residual = 6.53871e-07, Final residual = 6.53871e-07, No Iterations 0
DICPCG:  Solving for pB, Initial residual = 8.43302e-06, Final residual = 8.43302e-06, No Iterations 0
magnetic flux divergence error = 5.76149e-10
Time = 1.997

Courant Number mean: 0.00601668 max: 0.0134361
smoothSolver:  Solving for Ux, Initial residual = 2.08868e-06, Final residual = 2.08868e-06, No Iterations 0
smoothSolver:  Solving for Uy, Initial residual = 7.42185e-05, Final residual = 6.85288e-06, No Iterations 1
DICPCG:  Solving for p, Initial residual = 1.98533e-06, Final residual = 7.96774e-07, No Iterations 65
time step continuity errors : sum local = 3.33717e-10, global = 1.13592e-11, cumulative = -8.77708e-08
DICPCG:  Solving for p, Initial residual = 1.18632e-06, Final residual = 6.06509e-07, No Iterations 1
time step continuity errors : sum local = 2.54012e-10, global = 2.64612e-12, cumulative = -8.77681e-08
DICPCG:  Solving for p, Initial residual = 7.13302e-07, Final residual = 7.13302e-07, No Iterations 0
time step continuity errors : sum local = 2.98738e-10, global = -7.59603e-13, cumulative = -8.77689e-08
smoothSolver:  Solving for Bx, Initial residual = 7.88538e-06, Final residual = 7.88538e-06, No Iterations 0
smoothSolver:  Solving for By, Initial residual = 1.22042e-05, Final residual = 6.48707e-07, No Iterations 1
DICPCG:  Solving for pB, Initial residual = 2.64376e-05, Final residual = 8.57986e-06, No Iterations 4
magnetic flux divergence error = 5.86193e-10
smoothSolver:  Solving for Bx, Initial residual = 7.88541e-06, Final residual = 7.88541e-06, No Iterations 0
smoothSolver:  Solving for By, Initial residual = 6.48694e-07, Final residual = 6.48694e-07, No Iterations 0
DICPCG:  Solving for pB, Initial residual = 8.57968e-06, Final residual = 8.57968e-06, No Iterations 0
magnetic flux divergence error = 5.86193e-10
smoothSolver:  Solving for Bx, Initial residual = 7.88541e-06, Final residual = 7.88541e-06, No Iterations 0
smoothSolver:  Solving for By, Initial residual = 6.48694e-07, Final residual = 6.48694e-07, No Iterations 0
DICPCG:  Solving for pB, Initial residual = 8.57968e-06, Final residual = 8.57968e-06, No Iterations 0
magnetic flux divergence error = 5.86193e-10
Time = 1.998

Courant Number mean: 0.00601667 max: 0.0134361
smoothSolver:  Solving for Ux, Initial residual = 2.12498e-06, Final residual = 2.12498e-06, No Iterations 0
smoothSolver:  Solving for Uy, Initial residual = 6.9944e-05, Final residual = 5.91403e-06, No Iterations 1
DICPCG:  Solving for p, Initial residual = 1.59869e-06, Final residual = 9.08759e-07, No Iterations 69
time step continuity errors : sum local = 3.80597e-10, global = -6.70803e-12, cumulative = -8.77756e-08
DICPCG:  Solving for p, Initial residual = 1.20378e-06, Final residual = 6.7816e-07, No Iterations 1
time step continuity errors : sum local = 2.84034e-10, global = -7.66502e-12, cumulative = -8.77832e-08
DICPCG:  Solving for p, Initial residual = 8.17145e-07, Final residual = 8.17145e-07, No Iterations 0
time step continuity errors : sum local = 3.42244e-10, global = -8.07297e-12, cumulative = -8.77913e-08
smoothSolver:  Solving for Bx, Initial residual = 7.88973e-06, Final residual = 7.88973e-06, No Iterations 0
smoothSolver:  Solving for By, Initial residual = 1.22017e-05, Final residual = 6.50193e-07, No Iterations 1
DICPCG:  Solving for pB, Initial residual = 2.6996e-05, Final residual = 8.3898e-06, No Iterations 4
magnetic flux divergence error = 5.73231e-10
smoothSolver:  Solving for Bx, Initial residual = 7.88974e-06, Final residual = 7.88974e-06, No Iterations 0
smoothSolver:  Solving for By, Initial residual = 6.5018e-07, Final residual = 6.5018e-07, No Iterations 0
DICPCG:  Solving for pB, Initial residual = 8.38963e-06, Final residual = 8.38963e-06, No Iterations 0
magnetic flux divergence error = 5.73231e-10
smoothSolver:  Solving for Bx, Initial residual = 7.88974e-06, Final residual = 7.88974e-06, No Iterations 0
smoothSolver:  Solving for By, Initial residual = 6.5018e-07, Final residual = 6.5018e-07, No Iterations 0
DICPCG:  Solving for pB, Initial residual = 8.38963e-06, Final residual = 8.38963e-06, No Iterations 0
magnetic flux divergence error = 5.73231e-10
Time = 1.999

Courant Number mean: 0.00601667 max: 0.0134361
smoothSolver:  Solving for Ux, Initial residual = 8.35554e-07, Final residual = 8.35554e-07, No Iterations 0
smoothSolver:  Solving for Uy, Initial residual = 6.32297e-05, Final residual = 6.93245e-06, No Iterations 1
DICPCG:  Solving for p, Initial residual = 1.69873e-06, Final residual = 9.58697e-07, No Iterations 5
time step continuity errors : sum local = 4.0153e-10, global = -1.30336e-11, cumulative = -8.78044e-08
DICPCG:  Solving for p, Initial residual = 1.37478e-06, Final residual = 7.84809e-07, No Iterations 1
time step continuity errors : sum local = 3.28701e-10, global = -1.17027e-11, cumulative = -8.78161e-08
DICPCG:  Solving for p, Initial residual = 9.42138e-07, Final residual = 9.42138e-07, No Iterations 0
time step continuity errors : sum local = 3.94595e-10, global = -1.17135e-11, cumulative = -8.78278e-08
smoothSolver:  Solving for Bx, Initial residual = 7.90083e-06, Final residual = 7.90083e-06, No Iterations 0
smoothSolver:  Solving for By, Initial residual = 1.2173e-05, Final residual = 6.47088e-07, No Iterations 1
DICPCG:  Solving for pB, Initial residual = 2.63148e-05, Final residual = 8.51537e-06, No Iterations 4
magnetic flux divergence error = 5.81834e-10
smoothSolver:  Solving for Bx, Initial residual = 7.90086e-06, Final residual = 7.90086e-06, No Iterations 0
smoothSolver:  Solving for By, Initial residual = 6.47076e-07, Final residual = 6.47076e-07, No Iterations 0
DICPCG:  Solving for pB, Initial residual = 8.51519e-06, Final residual = 8.51519e-06, No Iterations 0
magnetic flux divergence error = 5.81834e-10
smoothSolver:  Solving for Bx, Initial residual = 7.90086e-06, Final residual = 7.90086e-06, No Iterations 0
smoothSolver:  Solving for By, Initial residual = 6.47076e-07, Final residual = 6.47076e-07, No Iterations 0
DICPCG:  Solving for pB, Initial residual = 8.51519e-06, Final residual = 8.51519e-06, No Iterations 0
magnetic flux divergence error = 5.81834e-10
Time = 2

Courant Number mean: 0.00601667 max: 0.0134361
smoothSolver:  Solving for Ux, Initial residual = 7.71856e-07, Final residual = 7.71856e-07, No Iterations 0
smoothSolver:  Solving for Uy, Initial residual = 9.30716e-05, Final residual = 5.64558e-06, No Iterations 2
DICPCG:  Solving for p, Initial residual = 2.24846e-06, Final residual = 9.1954e-07, No Iterations 3
time step continuity errors : sum local = 3.8513e-10, global = 5.25913e-12, cumulative = -8.78225e-08
DICPCG:  Solving for p, Initial residual = 1.49613e-06, Final residual = 8.98448e-07, No Iterations 2
time step continuity errors : sum local = 3.76296e-10, global = 1.01084e-11, cumulative = -8.78124e-08
DICPCG:  Solving for p, Initial residual = 1.16352e-06, Final residual = 7.37313e-07, No Iterations 1
time step continuity errors : sum local = 3.08808e-10, global = 1.2209e-11, cumulative = -8.78002e-08
smoothSolver:  Solving for Bx, Initial residual = 7.91546e-06, Final residual = 7.91546e-06, No Iterations 0
smoothSolver:  Solving for By, Initial residual = 1.21777e-05, Final residual = 6.47602e-07, No Iterations 1
DICPCG:  Solving for pB, Initial residual = 2.67236e-05, Final residual = 8.3776e-06, No Iterations 4
magnetic flux divergence error = 5.72443e-10
smoothSolver:  Solving for Bx, Initial residual = 7.91547e-06, Final residual = 7.91547e-06, No Iterations 0
smoothSolver:  Solving for By, Initial residual = 6.47589e-07, Final residual = 6.47589e-07, No Iterations 0
DICPCG:  Solving for pB, Initial residual = 8.37743e-06, Final residual = 8.37743e-06, No Iterations 0
magnetic flux divergence error = 5.72443e-10
smoothSolver:  Solving for Bx, Initial residual = 7.91547e-06, Final residual = 7.91547e-06, No Iterations 0
smoothSolver:  Solving for By, Initial residual = 6.47589e-07, Final residual = 6.47589e-07, No Iterations 0
DICPCG:  Solving for pB, Initial residual = 8.37743e-06, Final residual = 8.37743e-06, No Iterations 0
magnetic flux divergence error = 5.72443e-10
    functionObjects::components components(U) writing field: Ux
    functionObjects::components components(U) writing field: Uy
    functionObjects::components components(U) writing field: Uz
End

