/*---------------------------------------------------------------------------*\
| =========                 |                                                 |
| \\      /  F ield         | OpenFOAM: The Open Source CFD Toolbox           |
|  \\    /   O peration     | Version:  2012                                  |
|   \\  /    A nd           | Website:  www.openfoam.com                      |
|    \\/     M anipulation  |                                                 |
\*---------------------------------------------------------------------------*/
Build  : _269d0ffd5c-20210619 OPENFOAM=2012 patch=210618
Arch   : "LSB;label=32;scalar=64"
Exec   : mhdPimpleFoam
Date   : May 06 2022
Time   : 22:24:53
Host   : gabrielmarconcini-Lenovo-G50-80
PID    : 59213
I/O    : uncollated
Case   : /home/gabrielmarconcini/Documentos/TCC/PTCC/ShockTube/sim/NewSolver/mhd/sim1
nProcs : 1
trapFpe: Floating point exception trapping enabled (FOAM_SIGFPE).
fileModificationChecking : Monitoring run-time modified files using timeStampMaster (fileModificationSkew 5, maxFileModificationPolls 20)
allowSystemOperations : Allowing user-supplied system call operations

// * * * * * * * * * * * * * * * * * * * * * * * * * * * * * * * * * * * * * //
Create time

Create mesh for time = 0


PIMPLE: Operating solver in PISO mode


BPISO: Operating solver in PISO mode

Reading thermophysical properties

Selecting thermodynamics package 
{
    type            hePsiThermo;
    mixture         pureMixture;
    transport       const;
    thermo          eConst;
    equationOfState perfectGas;
    specie          specie;
    energy          sensibleInternalEnergy;
}

Reading field U

Reading/calculating face flux field phi

Reading/calculating face flux field incompressible phi

Creating turbulence model

Selecting turbulence model type laminar
Selecting laminar stress model Stokes
Creating field dpdt

Creating field kinetic energy K

No MRF models present

No finite volume options present
Reading transportProperties

Reading field pB

Reading field B

Calculating face flux phiB

Courant Number mean: 0 max: 0

Starting time loop

Courant Number mean: 0 max: 0
deltaT = 1.2e-05
Time = 1.2e-05

PIMPLE: iteration 1
diagonal:  Solving for rho, Initial residual = 0, Final residual = 0, No Iterations 0
smoothSolver:  Solving for Ux, Initial residual = 1, Final residual = 0, No Iterations 1
smoothSolver:  Solving for Uy, Initial residual = 1, Final residual = 0, No Iterations 1
smoothSolver:  Solving for Uz, Initial residual = 0, Final residual = 0, No Iterations 0
smoothSolver:  Solving for e, Initial residual = 1.13395e-09, Final residual = 9.93408e-20, No Iterations 1
DICPCG:  Solving for p, Initial residual = 2.55995e-05, Final residual = 1.25688e-18, No Iterations 2
diagonal:  Solving for rho, Initial residual = 0, Final residual = 0, No Iterations 0
time step continuity errors : sum local = 3.87345e-16, global = -3.67114e-16, cumulative = -3.67114e-16
DICPCG:  Solving for p, Initial residual = 1.15419e-07, Final residual = 5.48896e-21, No Iterations 2
diagonal:  Solving for rho, Initial residual = 0, Final residual = 0, No Iterations 0
time step continuity errors : sum local = 3.49844e-16, global = -3.23692e-16, cumulative = -6.90806e-16
DICPCG:  Solving for p, Initial residual = 5.19449e-10, Final residual = 7.15976e-16, No Iterations 1
diagonal:  Solving for rho, Initial residual = 0, Final residual = 0, No Iterations 0
time step continuity errors : sum local = 1.65004e-15, global = -1.5928e-15, cumulative = -2.28361e-15
smoothSolver:  Solving for Bx, Initial residual = 1, Final residual = 2.05014e-12, No Iterations 1000
smoothSolver:  Solving for By, Initial residual = 2.39998e-05, Final residual = 8.90179e-17, No Iterations 3
smoothSolver:  Solving for Bz, Initial residual = 0, Final residual = 0, No Iterations 0
DICPCG:  Solving for pB, Initial residual = 1, Final residual = 8.54742e-17, No Iterations 17
magnetic flux divergence error = 0
smoothSolver:  Solving for Bx, Initial residual = 0, Final residual = 0, No Iterations 0
smoothSolver:  Solving for By, Initial residual = 0, Final residual = 0, No Iterations 0
smoothSolver:  Solving for Bz, Initial residual = 0, Final residual = 0, No Iterations 0
DICPCG:  Solving for pB, Initial residual = 4.07054e-16, Final residual = 4.07054e-16, No Iterations 0
magnetic flux divergence error = 0
smoothSolver:  Solving for Bx, Initial residual = 0, Final residual = 0, No Iterations 0
smoothSolver:  Solving for By, Initial residual = 0, Final residual = 0, No Iterations 0
smoothSolver:  Solving for Bz, Initial residual = 0, Final residual = 0, No Iterations 0
DICPCG:  Solving for pB, Initial residual = 4.07054e-16, Final residual = 4.07054e-16, No Iterations 0
magnetic flux divergence error = 0
ExecutionTime = 0.13 s  ClockTime = 0 s

Courant Number mean: 5.80461e-05 max: 0.00514663
deltaT = 1.44e-05
Time = 2.64e-05

PIMPLE: iteration 1
diagonal:  Solving for rho, Initial residual = 0, Final residual = 0, No Iterations 0
smoothSolver:  Solving for Ux, Initial residual = 0.148115, Final residual = 2.00012e-17, No Iterations 3
smoothSolver:  Solving for Uy, Initial residual = 0.147993, Final residual = 2.01514e-17, No Iterations 3
smoothSolver:  Solving for Uz, Initial residual = 0, Final residual = 0, No Iterations 0
smoothSolver:  Solving for e, Initial residual = 0.000519138, Final residual = 1.2919e-18, No Iterations 2
DICPCG:  Solving for p, Initial residual = 0.000146128, Final residual = 2.37346e-17, No Iterations 2
diagonal:  Solving for rho, Initial residual = 0, Final residual = 0, No Iterations 0
time step continuity errors : sum local = 3.00254e-16, global = 2.23772e-16, cumulative = -2.05984e-15
DICPCG:  Solving for p, Initial residual = 1.19935e-06, Final residual = 5.37882e-19, No Iterations 2
diagonal:  Solving for rho, Initial residual = 0, Final residual = 0, No Iterations 0
time step continuity errors : sum local = 1.86271e-16, global = 1.51237e-16, cumulative = -1.9086e-15
DICPCG:  Solving for p, Initial residual = 6.47408e-09, Final residual = 4.13532e-21, No Iterations 2
diagonal:  Solving for rho, Initial residual = 0, Final residual = 0, No Iterations 0
time step continuity errors : sum local = 2.44496e-16, global = 2.23772e-16, cumulative = -1.68483e-15
smoothSolver:  Solving for Bx, Initial residual = 0.565228, Final residual = 5.44162e-13, No Iterations 1000
smoothSolver:  Solving for By, Initial residual = 2.87326e-05, Final residual = 1.03608e-16, No Iterations 3
smoothSolver:  Solving for Bz, Initial residual = 0, Final residual = 0, No Iterations 0
DICPCG:  Solving for pB, Initial residual = 0.489685, Final residual = 4.22994e-17, No Iterations 17
magnetic flux divergence error = 0
smoothSolver:  Solving for Bx, Initial residual = 0, Final residual = 0, No Iterations 0
smoothSolver:  Solving for By, Initial residual = 0, Final residual = 0, No Iterations 0
smoothSolver:  Solving for Bz, Initial residual = 0, Final residual = 0, No Iterations 0
DICPCG:  Solving for pB, Initial residual = 2.8343e-16, Final residual = 2.8343e-16, No Iterations 0
magnetic flux divergence error = 0
smoothSolver:  Solving for Bx, Initial residual = 0, Final residual = 0, No Iterations 0
smoothSolver:  Solving for By, Initial residual = 0, Final residual = 0, No Iterations 0
smoothSolver:  Solving for Bz, Initial residual = 0, Final residual = 0, No Iterations 0
DICPCG:  Solving for pB, Initial residual = 2.8343e-16, Final residual = 2.8343e-16, No Iterations 0
magnetic flux divergence error = 0
ExecutionTime = 0.15 s  ClockTime = 0 s

Courant Number mean: 0.000218842 max: 0.017728
deltaT = 1.728e-05
Time = 4.368e-05

PIMPLE: iteration 1
diagonal:  Solving for rho, Initial residual = 0, Final residual = 0, No Iterations 0
smoothSolver:  Solving for Ux, Initial residual = 0.0855616, Final residual = 2.08379e-17, No Iterations 4
smoothSolver:  Solving for Uy, Initial residual = 0.0852237, Final residual = 2.28932e-17, No Iterations 4
smoothSolver:  Solving for Uz, Initial residual = 0, Final residual = 0, No Iterations 0
smoothSolver:  Solving for e, Initial residual = 0.00165254, Final residual = 6.31692e-18, No Iterations 3
DICPCG:  Solving for p, Initial residual = 0.000365067, Final residual = 1.36495e-16, No Iterations 2
diagonal:  Solving for rho, Initial residual = 0, Final residual = 0, No Iterations 0
time step continuity errors : sum local = 4.24846e-16, global = -8.14164e-17, cumulative = -1.76624e-15
DICPCG:  Solving for p, Initial residual = 4.67575e-06, Final residual = 1.25575e-17, No Iterations 2
diagonal:  Solving for rho, Initial residual = 0, Final residual = 0, No Iterations 0
time step continuity errors : sum local = 2.42769e-16, global = 1.55925e-16, cumulative = -1.61032e-15
DICPCG:  Solving for p, Initial residual = 2.6235e-08, Final residual = 2.87747e-20, No Iterations 2
diagonal:  Solving for rho, Initial residual = 0, Final residual = 0, No Iterations 0
time step continuity errors : sum local = 2.09709e-16, global = 1.32733e-16, cumulative = -1.47758e-15
smoothSolver:  Solving for Bx, Initial residual = 0.409145, Final residual = 2.34445e-13, No Iterations 1000
smoothSolver:  Solving for By, Initial residual = 3.43829e-05, Final residual = 1.23147e-16, No Iterations 3
smoothSolver:  Solving for Bz, Initial residual = 0, Final residual = 0, No Iterations 0
DICPCG:  Solving for pB, Initial residual = 0.320351, Final residual = 8.77688e-16, No Iterations 16
magnetic flux divergence error = 0
smoothSolver:  Solving for Bx, Initial residual = 0, Final residual = 0, No Iterations 0
smoothSolver:  Solving for By, Initial residual = 0, Final residual = 0, No Iterations 0
smoothSolver:  Solving for Bz, Initial residual = 0, Final residual = 0, No Iterations 0
DICPCG:  Solving for pB, Initial residual = 7.65685e-16, Final residual = 7.65685e-16, No Iterations 0
magnetic flux divergence error = 0
smoothSolver:  Solving for Bx, Initial residual = 0, Final residual = 0, No Iterations 0
smoothSolver:  Solving for By, Initial residual = 0, Final residual = 0, No Iterations 0
smoothSolver:  Solving for Bz, Initial residual = 0, Final residual = 0, No Iterations 0
DICPCG:  Solving for pB, Initial residual = 7.65685e-16, Final residual = 7.65685e-16, No Iterations 0
magnetic flux divergence error = 0
ExecutionTime = 0.16 s  ClockTime = 0 s

Courant Number mean: 0.000463894 max: 0.0362653
deltaT = 2.0736e-05
Time = 6.4416e-05

PIMPLE: iteration 1
diagonal:  Solving for rho, Initial residual = 0, Final residual = 0, No Iterations 0
smoothSolver:  Solving for Ux, Initial residual = 0.0618953, Final residual = 5.69045e-17, No Iterations 4
smoothSolver:  Solving for Uy, Initial residual = 0.0613404, Final residual = 5.57443e-17, No Iterations 4
smoothSolver:  Solving for Uz, Initial residual = 0, Final residual = 0, No Iterations 0
smoothSolver:  Solving for e, Initial residual = 0.0033278, Final residual = 7.45625e-16, No Iterations 3
DICPCG:  Solving for p, Initial residual = 0.000666381, Final residual = 8.34375e-16, No Iterations 2
diagonal:  Solving for rho, Initial residual = 0, Final residual = 0, No Iterations 0
time step continuity errors : sum local = 1.77364e-15, global = 2.20318e-16, cumulative = -1.25727e-15
DICPCG:  Solving for p, Initial residual = 1.08657e-05, Final residual = 1.54154e-16, No Iterations 2
diagonal:  Solving for rho, Initial residual = 0, Final residual = 0, No Iterations 0
time step continuity errors : sum local = 5.66708e-16, global = 5.10456e-16, cumulative = -7.46811e-16
DICPCG:  Solving for p, Initial residual = 8.26647e-08, Final residual = 9.64406e-19, No Iterations 2
diagonal:  Solving for rho, Initial residual = 0, Final residual = 0, No Iterations 0
time step continuity errors : sum local = 2.77309e-16, global = 2.25992e-16, cumulative = -5.20818e-16
smoothSolver:  Solving for Bx, Initial residual = 0.325573, Final residual = 1.3216e-13, No Iterations 1000
smoothSolver:  Solving for By, Initial residual = 4.11214e-05, Final residual = 1.47658e-16, No Iterations 3
smoothSolver:  Solving for Bz, Initial residual = 0, Final residual = 0, No Iterations 0
DICPCG:  Solving for pB, Initial residual = 0.231466, Final residual = 6.65891e-16, No Iterations 16
magnetic flux divergence error = 0
smoothSolver:  Solving for Bx, Initial residual = 5.75182e-15, Final residual = 9.97015e-14, No Iterations 1000
smoothSolver:  Solving for By, Initial residual = 0, Final residual = 0, No Iterations 0
smoothSolver:  Solving for Bz, Initial residual = 0, Final residual = 0, No Iterations 0
DICPCG:  Solving for pB, Initial residual = 2.2409e-15, Final residual = 1.14598e-16, No Iterations 1
magnetic flux divergence error = 0
smoothSolver:  Solving for Bx, Initial residual = 5.11273e-15, Final residual = 9.97015e-14, No Iterations 1000
smoothSolver:  Solving for By, Initial residual = 0, Final residual = 0, No Iterations 0
smoothSolver:  Solving for Bz, Initial residual = 0, Final residual = 0, No Iterations 0
DICPCG:  Solving for pB, Initial residual = 4.17629e-16, Final residual = 4.17629e-16, No Iterations 0
magnetic flux divergence error = 0
ExecutionTime = 0.18 s  ClockTime = 0 s

Courant Number mean: 0.000766297 max: 0.0582872
deltaT = 2.48832e-05
Time = 8.92992e-05

PIMPLE: iteration 1
diagonal:  Solving for rho, Initial residual = 0, Final residual = 0, No Iterations 0
smoothSolver:  Solving for Ux, Initial residual = 0.0487064, Final residual = 1.6456e-17, No Iterations 5
smoothSolver:  Solving for Uy, Initial residual = 0.0478884, Final residual = 1.07776e-17, No Iterations 5
smoothSolver:  Solving for Uz, Initial residual = 0, Final residual = 0, No Iterations 0
smoothSolver:  Solving for e, Initial residual = 0.0053913, Final residual = 1.99955e-16, No Iterations 2
DICPCG:  Solving for p, Initial residual = 0.00103216, Final residual = 9.98979e-21, No Iterations 3
diagonal:  Solving for rho, Initial residual = 0, Final residual = 0, No Iterations 0
time step continuity errors : sum local = 1.62833e-16, global = 1.03621e-16, cumulative = -4.17197e-16
DICPCG:  Solving for p, Initial residual = 1.6712e-05, Final residual = 8.04042e-16, No Iterations 2
diagonal:  Solving for rho, Initial residual = 0, Final residual = 0, No Iterations 0
time step continuity errors : sum local = 1.56961e-15, global = 1.32635e-15, cumulative = 9.0915e-16
DICPCG:  Solving for p, Initial residual = 3.70723e-07, Final residual = 1.10531e-17, No Iterations 2
diagonal:  Solving for rho, Initial residual = 0, Final residual = 0, No Iterations 0
time step continuity errors : sum local = 1.78869e-16, global = 6.24193e-17, cumulative = 9.71569e-16
smoothSolver:  Solving for Bx, Initial residual = 0.27045, Final residual = 8.16044e-14, No Iterations 1000
smoothSolver:  Solving for By, Initial residual = 4.91479e-05, Final residual = 4.75807e-17, No Iterations 3
smoothSolver:  Solving for Bz, Initial residual = 0, Final residual = 0, No Iterations 0
DICPCG:  Solving for pB, Initial residual = 0.177508, Final residual = 5.42725e-16, No Iterations 16
magnetic flux divergence error = 2.76259e-22
smoothSolver:  Solving for Bx, Initial residual = 0, Final residual = 0, No Iterations 0
smoothSolver:  Solving for By, Initial residual = 5.65923e-19, Final residual = 5.65923e-19, No Iterations 0
smoothSolver:  Solving for Bz, Initial residual = 0, Final residual = 0, No Iterations 0
DICPCG:  Solving for pB, Initial residual = 6.06949e-16, Final residual = 6.06949e-16, No Iterations 0
magnetic flux divergence error = 2.76259e-22
smoothSolver:  Solving for Bx, Initial residual = 0, Final residual = 0, No Iterations 0
smoothSolver:  Solving for By, Initial residual = 5.65923e-19, Final residual = 5.65923e-19, No Iterations 0
smoothSolver:  Solving for Bz, Initial residual = 0, Final residual = 0, No Iterations 0
DICPCG:  Solving for pB, Initial residual = 6.06949e-16, Final residual = 6.06949e-16, No Iterations 0
magnetic flux divergence error = 2.76259e-22
ExecutionTime = 0.19 s  ClockTime = 0 s

Courant Number mean: 0.00115817 max: 0.0828712
deltaT = 2.98598e-05
Time = 0.000119159

PIMPLE: iteration 1
diagonal:  Solving for rho, Initial residual = 0, Final residual = 0, No Iterations 0
smoothSolver:  Solving for Ux, Initial residual = 0.0403536, Final residual = 4.5685e-17, No Iterations 5
smoothSolver:  Solving for Uy, Initial residual = 0.039103, Final residual = 6.00311e-17, No Iterations 5
smoothSolver:  Solving for Uz, Initial residual = 0, Final residual = 0, No Iterations 0
smoothSolver:  Solving for e, Initial residual = 0.00729786, Final residual = 7.80284e-18, No Iterations 3
DICPCG:  Solving for p, Initial residual = 0.00144728, Final residual = 1.52842e-19, No Iterations 3
diagonal:  Solving for rho, Initial residual = 0, Final residual = 0, No Iterations 0
time step continuity errors : sum local = 1.60612e-16, global = -4.07082e-17, cumulative = 9.30861e-16
DICPCG:  Solving for p, Initial residual = 2.87177e-05, Final residual = 7.10651e-21, No Iterations 3
diagonal:  Solving for rho, Initial residual = 0, Final residual = 0, No Iterations 0
time step continuity errors : sum local = 1.23605e-16, global = -4.81097e-17, cumulative = 8.82751e-16
DICPCG:  Solving for p, Initial residual = 1.28856e-06, Final residual = 3.80267e-17, No Iterations 2
diagonal:  Solving for rho, Initial residual = 0, Final residual = 0, No Iterations 0
time step continuity errors : sum local = 1.90218e-16, global = -5.89652e-17, cumulative = 8.23786e-16
smoothSolver:  Solving for Bx, Initial residual = 0.230636, Final residual = 5.70459e-14, No Iterations 1000
smoothSolver:  Solving for By, Initial residual = 5.86945e-05, Final residual = 6.07143e-17, No Iterations 3
smoothSolver:  Solving for Bz, Initial residual = 0, Final residual = 0, No Iterations 0
DICPCG:  Solving for pB, Initial residual = 0.141574, Final residual = 4.65535e-16, No Iterations 16
magnetic flux divergence error = 9.94532e-22
smoothSolver:  Solving for Bx, Initial residual = 0, Final residual = 0, No Iterations 0
smoothSolver:  Solving for By, Initial residual = 4.07505e-18, Final residual = 4.07505e-18, No Iterations 0
smoothSolver:  Solving for Bz, Initial residual = 0, Final residual = 0, No Iterations 0
DICPCG:  Solving for pB, Initial residual = 6.10055e-16, Final residual = 6.10055e-16, No Iterations 0
magnetic flux divergence error = 9.94532e-22
smoothSolver:  Solving for Bx, Initial residual = 0, Final residual = 0, No Iterations 0
smoothSolver:  Solving for By, Initial residual = 4.07505e-18, Final residual = 4.07505e-18, No Iterations 0
smoothSolver:  Solving for Bz, Initial residual = 0, Final residual = 0, No Iterations 0
DICPCG:  Solving for pB, Initial residual = 6.10055e-16, Final residual = 6.10055e-16, No Iterations 0
magnetic flux divergence error = 9.94532e-22
ExecutionTime = 0.2 s  ClockTime = 0 s

Courant Number mean: 0.00161215 max: 0.105876
deltaT = 3.58318e-05
Time = 0.000154991

PIMPLE: iteration 1
diagonal:  Solving for rho, Initial residual = 0, Final residual = 0, No Iterations 0
smoothSolver:  Solving for Ux, Initial residual = 0.0345399, Final residual = 8.23795e-16, No Iterations 5
smoothSolver:  Solving for Uy, Initial residual = 0.032996, Final residual = 7.54353e-18, No Iterations 6
smoothSolver:  Solving for Uz, Initial residual = 0, Final residual = 0, No Iterations 0
smoothSolver:  Solving for e, Initial residual = 0.0082624, Final residual = 1.57782e-17, No Iterations 3
DICPCG:  Solving for p, Initial residual = 0.00186022, Final residual = 1.32921e-18, No Iterations 3
diagonal:  Solving for rho, Initial residual = 0, Final residual = 0, No Iterations 0
time step continuity errors : sum local = 2.62753e-16, global = 1.4877e-16, cumulative = 9.72556e-16
DICPCG:  Solving for p, Initial residual = 5.34218e-05, Final residual = 2.05616e-20, No Iterations 3
diagonal:  Solving for rho, Initial residual = 0, Final residual = 0, No Iterations 0
time step continuity errors : sum local = 2.55105e-16, global = 1.53951e-16, cumulative = 1.12651e-15
DICPCG:  Solving for p, Initial residual = 3.33002e-06, Final residual = 3.36388e-16, No Iterations 2
diagonal:  Solving for rho, Initial residual = 0, Final residual = 0, No Iterations 0
time step continuity errors : sum local = 8.4451e-16, global = 2.59792e-16, cumulative = 1.3863e-15
smoothSolver:  Solving for Bx, Initial residual = 0.215243, Final residual = 4.58808e-14, No Iterations 1000
smoothSolver:  Solving for By, Initial residual = 7.0029e-05, Final residual = 7.54509e-17, No Iterations 3
smoothSolver:  Solving for Bz, Initial residual = 0, Final residual = 0, No Iterations 0
DICPCG:  Solving for pB, Initial residual = 0.114767, Final residual = 4.26015e-16, No Iterations 16
magnetic flux divergence error = 3.97813e-22
smoothSolver:  Solving for Bx, Initial residual = 5.31406e-16, Final residual = 5.31406e-16, No Iterations 0
smoothSolver:  Solving for By, Initial residual = 8.96615e-18, Final residual = 8.96615e-18, No Iterations 0
smoothSolver:  Solving for Bz, Initial residual = 0, Final residual = 0, No Iterations 0
DICPCG:  Solving for pB, Initial residual = 5.31195e-16, Final residual = 5.31195e-16, No Iterations 0
magnetic flux divergence error = 3.97813e-22
smoothSolver:  Solving for Bx, Initial residual = 5.31406e-16, Final residual = 5.31406e-16, No Iterations 0
smoothSolver:  Solving for By, Initial residual = 8.96615e-18, Final residual = 8.96615e-18, No Iterations 0
smoothSolver:  Solving for Bz, Initial residual = 0, Final residual = 0, No Iterations 0
DICPCG:  Solving for pB, Initial residual = 5.31195e-16, Final residual = 5.31195e-16, No Iterations 0
magnetic flux divergence error = 3.97813e-22
ExecutionTime = 0.21 s  ClockTime = 0 s

Courant Number mean: 0.00217515 max: 0.126494
deltaT = 4.29982e-05
Time = 0.000197989

PIMPLE: iteration 1
diagonal:  Solving for rho, Initial residual = 0, Final residual = 0, No Iterations 0
smoothSolver:  Solving for Ux, Initial residual = 0.0310514, Final residual = 3.65144e-17, No Iterations 6
smoothSolver:  Solving for Uy, Initial residual = 0.0293556, Final residual = 4.25676e-17, No Iterations 6
smoothSolver:  Solving for Uz, Initial residual = 0, Final residual = 0, No Iterations 0
smoothSolver:  Solving for e, Initial residual = 0.00785963, Final residual = 4.4006e-17, No Iterations 3
DICPCG:  Solving for p, Initial residual = 0.00220053, Final residual = 4.71859e-18, No Iterations 3
diagonal:  Solving for rho, Initial residual = 0, Final residual = 0, No Iterations 0
time step continuity errors : sum local = 3.29366e-16, global = 2.50911e-16, cumulative = 1.63721e-15
DICPCG:  Solving for p, Initial residual = 9.95285e-05, Final residual = 1.25197e-18, No Iterations 3
diagonal:  Solving for rho, Initial residual = 0, Final residual = 0, No Iterations 0
time step continuity errors : sum local = 2.62753e-16, global = 1.98113e-16, cumulative = 1.83532e-15
DICPCG:  Solving for p, Initial residual = 7.34654e-06, Final residual = 6.34494e-20, No Iterations 3
diagonal:  Solving for rho, Initial residual = 0, Final residual = 0, No Iterations 0
time step continuity errors : sum local = 3.1481e-16, global = 2.53131e-16, cumulative = 2.08845e-15
smoothSolver:  Solving for Bx, Initial residual = 0.200496, Final residual = 1.08416e-14, No Iterations 1000
smoothSolver:  Solving for By, Initial residual = 8.34581e-05, Final residual = 9.46131e-17, No Iterations 3
smoothSolver:  Solving for Bz, Initial residual = 0, Final residual = 0, No Iterations 0
DICPCG:  Solving for pB, Initial residual = 0.0983658, Final residual = 4.17014e-16, No Iterations 16
magnetic flux divergence error = 4.77376e-21
smoothSolver:  Solving for Bx, Initial residual = 2.44252e-15, Final residual = 9.03401e-15, No Iterations 1000
smoothSolver:  Solving for By, Initial residual = 1.27174e-17, Final residual = 1.27174e-17, No Iterations 0
smoothSolver:  Solving for Bz, Initial residual = 0, Final residual = 0, No Iterations 0
DICPCG:  Solving for pB, Initial residual = 6.41487e-16, Final residual = 6.41487e-16, No Iterations 0
magnetic flux divergence error = 4.77376e-21
smoothSolver:  Solving for Bx, Initial residual = 2.44252e-15, Final residual = 9.03401e-15, No Iterations 1000
smoothSolver:  Solving for By, Initial residual = 1.27174e-17, Final residual = 1.27174e-17, No Iterations 0
smoothSolver:  Solving for Bz, Initial residual = 0, Final residual = 0, No Iterations 0
DICPCG:  Solving for pB, Initial residual = 6.41487e-16, Final residual = 6.41487e-16, No Iterations 0
magnetic flux divergence error = 4.77376e-21
ExecutionTime = 0.23 s  ClockTime = 1 s

Courant Number mean: 0.00291581 max: 0.144987
deltaT = 5e-05
Time = 0.000247989

PIMPLE: iteration 1
diagonal:  Solving for rho, Initial residual = 0, Final residual = 0, No Iterations 0
smoothSolver:  Solving for Ux, Initial residual = 0.0288452, Final residual = 6.64966e-17, No Iterations 6
smoothSolver:  Solving for Uy, Initial residual = 0.0272944, Final residual = 2.43373e-16, No Iterations 6
smoothSolver:  Solving for Uz, Initial residual = 0, Final residual = 0, No Iterations 0
smoothSolver:  Solving for e, Initial residual = 0.00942368, Final residual = 1.72401e-17, No Iterations 4
DICPCG:  Solving for p, Initial residual = 0.00264535, Final residual = 2.40622e-17, No Iterations 3
diagonal:  Solving for rho, Initial residual = 0, Final residual = 0, No Iterations 0
time step continuity errors : sum local = 2.55598e-16, global = 1.82077e-16, cumulative = 2.27053e-15
DICPCG:  Solving for p, Initial residual = 0.000168657, Final residual = 1.9032e-17, No Iterations 3
diagonal:  Solving for rho, Initial residual = 0, Final residual = 0, No Iterations 0
time step continuity errors : sum local = 2.59546e-16, global = 1.8405e-16, cumulative = 2.45458e-15
DICPCG:  Solving for p, Initial residual = 1.32866e-05, Final residual = 1.12962e-18, No Iterations 3
diagonal:  Solving for rho, Initial residual = 0, Final residual = 0, No Iterations 0
time step continuity errors : sum local = 2.31667e-16, global = 1.8035e-16, cumulative = 2.63493e-15
smoothSolver:  Solving for Bx, Initial residual = 0.179813, Final residual = 9.40127e-15, No Iterations 1000
smoothSolver:  Solving for By, Initial residual = 9.62535e-05, Final residual = 1.25598e-16, No Iterations 3
smoothSolver:  Solving for Bz, Initial residual = 0, Final residual = 0, No Iterations 0
DICPCG:  Solving for pB, Initial residual = 0.0929225, Final residual = 4.41525e-16, No Iterations 16
magnetic flux divergence error = 9.99201e-21
smoothSolver:  Solving for Bx, Initial residual = 0, Final residual = 0, No Iterations 0
smoothSolver:  Solving for By, Initial residual = 3.98212e-17, Final residual = 3.98212e-17, No Iterations 0
smoothSolver:  Solving for Bz, Initial residual = 0, Final residual = 0, No Iterations 0
DICPCG:  Solving for pB, Initial residual = 8.63352e-16, Final residual = 8.63352e-16, No Iterations 0
magnetic flux divergence error = 9.99201e-21
smoothSolver:  Solving for Bx, Initial residual = 0, Final residual = 0, No Iterations 0
smoothSolver:  Solving for By, Initial residual = 3.98212e-17, Final residual = 3.98212e-17, No Iterations 0
smoothSolver:  Solving for Bz, Initial residual = 0, Final residual = 0, No Iterations 0
DICPCG:  Solving for pB, Initial residual = 8.63352e-16, Final residual = 8.63352e-16, No Iterations 0
magnetic flux divergence error = 9.99201e-21
ExecutionTime = 0.24 s  ClockTime = 1 s

Courant Number mean: 0.00382711 max: 0.158122
deltaT = 5e-05
Time = 0.000297989

PIMPLE: iteration 1
diagonal:  Solving for rho, Initial residual = 0, Final residual = 0, No Iterations 0
smoothSolver:  Solving for Ux, Initial residual = 0.0248131, Final residual = 4.12234e-17, No Iterations 6
smoothSolver:  Solving for Uy, Initial residual = 0.0240861, Final residual = 1.4889e-16, No Iterations 6
smoothSolver:  Solving for Uz, Initial residual = 0, Final residual = 0, No Iterations 0
smoothSolver:  Solving for e, Initial residual = 0.0112721, Final residual = 2.0295e-16, No Iterations 4
DICPCG:  Solving for p, Initial residual = 0.00253256, Final residual = 1.0567e-16, No Iterations 3
diagonal:  Solving for rho, Initial residual = 0, Final residual = 0, No Iterations 0
time step continuity errors : sum local = 4.23612e-16, global = 1.9762e-16, cumulative = 2.83255e-15
DICPCG:  Solving for p, Initial residual = 0.000168367, Final residual = 2.63599e-17, No Iterations 3
diagonal:  Solving for rho, Initial residual = 0, Final residual = 0, No Iterations 0
time step continuity errors : sum local = 2.84464e-16, global = 1.75909e-16, cumulative = 3.00846e-15
DICPCG:  Solving for p, Initial residual = 1.2921e-05, Final residual = 1.26661e-18, No Iterations 3
diagonal:  Solving for rho, Initial residual = 0, Final residual = 0, No Iterations 0
time step continuity errors : sum local = 2.4795e-16, global = 1.71961e-16, cumulative = 3.18042e-15
smoothSolver:  Solving for Bx, Initial residual = 0.1415, Final residual = 6.8843e-15, No Iterations 1000
smoothSolver:  Solving for By, Initial residual = 9.53436e-05, Final residual = 1.24439e-16, No Iterations 3
smoothSolver:  Solving for Bz, Initial residual = 0, Final residual = 0, No Iterations 0
DICPCG:  Solving for pB, Initial residual = 0.125243, Final residual = 6.31227e-16, No Iterations 16
magnetic flux divergence error = 4.996e-21
smoothSolver:  Solving for Bx, Initial residual = 0, Final residual = 0, No Iterations 0
smoothSolver:  Solving for By, Initial residual = 3.58459e-17, Final residual = 3.58459e-17, No Iterations 0
smoothSolver:  Solving for Bz, Initial residual = 0, Final residual = 0, No Iterations 0
DICPCG:  Solving for pB, Initial residual = 5.84932e-16, Final residual = 5.84932e-16, No Iterations 0
magnetic flux divergence error = 4.996e-21
smoothSolver:  Solving for Bx, Initial residual = 0, Final residual = 0, No Iterations 0
smoothSolver:  Solving for By, Initial residual = 3.58459e-17, Final residual = 3.58459e-17, No Iterations 0
smoothSolver:  Solving for Bz, Initial residual = 0, Final residual = 0, No Iterations 0
DICPCG:  Solving for pB, Initial residual = 5.84932e-16, Final residual = 5.84932e-16, No Iterations 0
magnetic flux divergence error = 4.996e-21
ExecutionTime = 0.25 s  ClockTime = 1 s

Courant Number mean: 0.00430137 max: 0.149075
deltaT = 5e-05
Time = 0.000347989

PIMPLE: iteration 1
diagonal:  Solving for rho, Initial residual = 0, Final residual = 0, No Iterations 0
smoothSolver:  Solving for Ux, Initial residual = 0.0260177, Final residual = 7.80647e-17, No Iterations 6
smoothSolver:  Solving for Uy, Initial residual = 0.0225376, Final residual = 1.14668e-16, No Iterations 6
smoothSolver:  Solving for Uz, Initial residual = 0, Final residual = 0, No Iterations 0
smoothSolver:  Solving for e, Initial residual = 0.0136192, Final residual = 2.90345e-17, No Iterations 6
DICPCG:  Solving for p, Initial residual = 0.00229356, Final residual = 1.24427e-16, No Iterations 3
diagonal:  Solving for rho, Initial residual = 0, Final residual = 0, No Iterations 0
time step continuity errors : sum local = 4.59633e-16, global = 3.01734e-16, cumulative = 3.48216e-15
DICPCG:  Solving for p, Initial residual = 0.000167643, Final residual = 4.61394e-17, No Iterations 3
diagonal:  Solving for rho, Initial residual = 0, Final residual = 0, No Iterations 0
time step continuity errors : sum local = 2.9828e-16, global = 1.88245e-16, cumulative = 3.6704e-15
DICPCG:  Solving for p, Initial residual = 1.40045e-05, Final residual = 1.43638e-18, No Iterations 3
diagonal:  Solving for rho, Initial residual = 0, Final residual = 0, No Iterations 0
time step continuity errors : sum local = 2.25499e-16, global = 1.20398e-16, cumulative = 3.7908e-15
smoothSolver:  Solving for Bx, Initial residual = 0.114262, Final residual = 5.30079e-15, No Iterations 1000
smoothSolver:  Solving for By, Initial residual = 9.44467e-05, Final residual = 1.24958e-16, No Iterations 3
smoothSolver:  Solving for Bz, Initial residual = 0, Final residual = 0, No Iterations 0
DICPCG:  Solving for pB, Initial residual = 0.0957629, Final residual = 5.61561e-16, No Iterations 16
magnetic flux divergence error = 1.22125e-20
smoothSolver:  Solving for Bx, Initial residual = 0, Final residual = 0, No Iterations 0
smoothSolver:  Solving for By, Initial residual = 3.756e-17, Final residual = 3.756e-17, No Iterations 0
smoothSolver:  Solving for Bz, Initial residual = 0, Final residual = 0, No Iterations 0
DICPCG:  Solving for pB, Initial residual = 7.23612e-16, Final residual = 7.23612e-16, No Iterations 0
magnetic flux divergence error = 1.22125e-20
smoothSolver:  Solving for Bx, Initial residual = 0, Final residual = 0, No Iterations 0
smoothSolver:  Solving for By, Initial residual = 3.756e-17, Final residual = 3.756e-17, No Iterations 0
smoothSolver:  Solving for Bz, Initial residual = 0, Final residual = 0, No Iterations 0
DICPCG:  Solving for pB, Initial residual = 7.23612e-16, Final residual = 7.23612e-16, No Iterations 0
magnetic flux divergence error = 1.22125e-20
ExecutionTime = 0.26 s  ClockTime = 1 s

Courant Number mean: 0.00479833 max: 0.140976
deltaT = 5e-05
Time = 0.000397989

PIMPLE: iteration 1
diagonal:  Solving for rho, Initial residual = 0, Final residual = 0, No Iterations 0
smoothSolver:  Solving for Ux, Initial residual = 0.0274464, Final residual = 8.55447e-17, No Iterations 6
smoothSolver:  Solving for Uy, Initial residual = 0.0214244, Final residual = 1.22127e-16, No Iterations 6
smoothSolver:  Solving for Uz, Initial residual = 0, Final residual = 0, No Iterations 0
smoothSolver:  Solving for e, Initial residual = 0.0146323, Final residual = 2.91943e-17, No Iterations 6
DICPCG:  Solving for p, Initial residual = 0.00240289, Final residual = 2.26985e-16, No Iterations 3
diagonal:  Solving for rho, Initial residual = 0, Final residual = 0, No Iterations 0
time step continuity errors : sum local = 6.38502e-16, global = 3.87838e-16, cumulative = 4.17864e-15
DICPCG:  Solving for p, Initial residual = 0.000180359, Final residual = 5.02122e-17, No Iterations 3
diagonal:  Solving for rho, Initial residual = 0, Final residual = 0, No Iterations 0
time step continuity errors : sum local = 3.50584e-16, global = 2.13903e-16, cumulative = 4.39254e-15
DICPCG:  Solving for p, Initial residual = 1.50183e-05, Final residual = 1.82366e-18, No Iterations 3
diagonal:  Solving for rho, Initial residual = 0, Final residual = 0, No Iterations 0
time step continuity errors : sum local = 2.6226e-16, global = 2.09462e-16, cumulative = 4.602e-15
smoothSolver:  Solving for Bx, Initial residual = 0.0936135, Final residual = 4.07174e-15, No Iterations 1000
smoothSolver:  Solving for By, Initial residual = 9.35626e-05, Final residual = 1.27681e-16, No Iterations 3
smoothSolver:  Solving for Bz, Initial residual = 0, Final residual = 0, No Iterations 0
DICPCG:  Solving for pB, Initial residual = 0.0805521, Final residual = 5.24833e-16, No Iterations 16
magnetic flux divergence error = 8.32667e-21
smoothSolver:  Solving for Bx, Initial residual = 1.06278e-16, Final residual = 1.06278e-16, No Iterations 0
smoothSolver:  Solving for By, Initial residual = 3.98438e-17, Final residual = 3.98438e-17, No Iterations 0
smoothSolver:  Solving for Bz, Initial residual = 0, Final residual = 0, No Iterations 0
DICPCG:  Solving for pB, Initial residual = 7.49668e-16, Final residual = 7.49668e-16, No Iterations 0
magnetic flux divergence error = 8.32667e-21
smoothSolver:  Solving for Bx, Initial residual = 1.06278e-16, Final residual = 1.06278e-16, No Iterations 0
smoothSolver:  Solving for By, Initial residual = 3.98438e-17, Final residual = 3.98438e-17, No Iterations 0
smoothSolver:  Solving for Bz, Initial residual = 0, Final residual = 0, No Iterations 0
DICPCG:  Solving for pB, Initial residual = 7.49668e-16, Final residual = 7.49668e-16, No Iterations 0
magnetic flux divergence error = 8.32667e-21
ExecutionTime = 0.27 s  ClockTime = 1 s

Courant Number mean: 0.00531428 max: 0.143768
deltaT = 5e-05
Time = 0.000447989

PIMPLE: iteration 1
diagonal:  Solving for rho, Initial residual = 0, Final residual = 0, No Iterations 0
smoothSolver:  Solving for Ux, Initial residual = 0.0275834, Final residual = 4.5037e-17, No Iterations 6
smoothSolver:  Solving for Uy, Initial residual = 0.0203193, Final residual = 1.05558e-16, No Iterations 6
smoothSolver:  Solving for Uz, Initial residual = 0, Final residual = 0, No Iterations 0
smoothSolver:  Solving for e, Initial residual = 0.0137139, Final residual = 6.65316e-17, No Iterations 5
DICPCG:  Solving for p, Initial residual = 0.00232179, Final residual = 4.69794e-16, No Iterations 3
diagonal:  Solving for rho, Initial residual = 0, Final residual = 0, No Iterations 0
time step continuity errors : sum local = 1.11763e-15, global = 1.29279e-16, cumulative = 4.73128e-15
DICPCG:  Solving for p, Initial residual = 0.000160304, Final residual = 7.0685e-17, No Iterations 3
diagonal:  Solving for rho, Initial residual = 0, Final residual = 0, No Iterations 0
time step continuity errors : sum local = 3.71555e-16, global = 1.25825e-16, cumulative = 4.85711e-15
DICPCG:  Solving for p, Initial residual = 1.38957e-05, Final residual = 4.54005e-18, No Iterations 3
diagonal:  Solving for rho, Initial residual = 0, Final residual = 0, No Iterations 0
time step continuity errors : sum local = 2.65467e-16, global = 1.90959e-16, cumulative = 5.04806e-15
smoothSolver:  Solving for Bx, Initial residual = 0.0775034, Final residual = 3.29731e-15, No Iterations 1000
smoothSolver:  Solving for By, Initial residual = 9.26911e-05, Final residual = 1.19386e-16, No Iterations 3
smoothSolver:  Solving for Bz, Initial residual = 0, Final residual = 0, No Iterations 0
DICPCG:  Solving for pB, Initial residual = 0.0686559, Final residual = 4.97615e-16, No Iterations 16
magnetic flux divergence error = 9.4369e-21
smoothSolver:  Solving for Bx, Initial residual = 1.81979e-17, Final residual = 1.81979e-17, No Iterations 0
smoothSolver:  Solving for By, Initial residual = 3.52968e-17, Final residual = 3.52968e-17, No Iterations 0
smoothSolver:  Solving for Bz, Initial residual = 0, Final residual = 0, No Iterations 0
DICPCG:  Solving for pB, Initial residual = 7.96746e-16, Final residual = 7.96746e-16, No Iterations 0
magnetic flux divergence error = 9.4369e-21
smoothSolver:  Solving for Bx, Initial residual = 1.81979e-17, Final residual = 1.81979e-17, No Iterations 0
smoothSolver:  Solving for By, Initial residual = 3.52968e-17, Final residual = 3.52968e-17, No Iterations 0
smoothSolver:  Solving for Bz, Initial residual = 0, Final residual = 0, No Iterations 0
DICPCG:  Solving for pB, Initial residual = 7.96746e-16, Final residual = 7.96746e-16, No Iterations 0
magnetic flux divergence error = 9.4369e-21
ExecutionTime = 0.28 s  ClockTime = 1 s

Courant Number mean: 0.00584679 max: 0.148639
deltaT = 5e-05
Time = 0.000497989

PIMPLE: iteration 1
diagonal:  Solving for rho, Initial residual = 0, Final residual = 0, No Iterations 0
smoothSolver:  Solving for Ux, Initial residual = 0.0262774, Final residual = 7.13201e-17, No Iterations 6
smoothSolver:  Solving for Uy, Initial residual = 0.0191232, Final residual = 1.16764e-16, No Iterations 6
smoothSolver:  Solving for Uz, Initial residual = 0, Final residual = 0, No Iterations 0
smoothSolver:  Solving for e, Initial residual = 0.0153497, Final residual = 3.20737e-17, No Iterations 6
DICPCG:  Solving for p, Initial residual = 0.00216531, Final residual = 3.92344e-16, No Iterations 3
diagonal:  Solving for rho, Initial residual = 0, Final residual = 0, No Iterations 0
time step continuity errors : sum local = 9.51832e-16, global = 4.85044e-16, cumulative = 5.53311e-15
DICPCG:  Solving for p, Initial residual = 0.000132614, Final residual = 6.07671e-17, No Iterations 3
diagonal:  Solving for rho, Initial residual = 0, Final residual = 0, No Iterations 0
time step continuity errors : sum local = 3.18511e-16, global = 1.27552e-16, cumulative = 5.66066e-15
DICPCG:  Solving for p, Initial residual = 1.11208e-05, Final residual = 2.2246e-18, No Iterations 3
diagonal:  Solving for rho, Initial residual = 0, Final residual = 0, No Iterations 0
time step continuity errors : sum local = 2.36354e-16, global = 1.90959e-16, cumulative = 5.85162e-15
smoothSolver:  Solving for Bx, Initial residual = 0.0689323, Final residual = 2.97673e-15, No Iterations 1000
smoothSolver:  Solving for By, Initial residual = 9.1832e-05, Final residual = 1.21843e-16, No Iterations 3
smoothSolver:  Solving for Bz, Initial residual = 0, Final residual = 0, No Iterations 0
DICPCG:  Solving for pB, Initial residual = 0.0570182, Final residual = 4.76023e-16, No Iterations 16
magnetic flux divergence error = 7.21645e-21
smoothSolver:  Solving for Bx, Initial residual = 4.79503e-17, Final residual = 4.79503e-17, No Iterations 0
smoothSolver:  Solving for By, Initial residual = 3.70115e-17, Final residual = 3.70115e-17, No Iterations 0
smoothSolver:  Solving for Bz, Initial residual = 0, Final residual = 0, No Iterations 0
DICPCG:  Solving for pB, Initial residual = 6.88829e-16, Final residual = 6.88829e-16, No Iterations 0
magnetic flux divergence error = 7.21645e-21
smoothSolver:  Solving for Bx, Initial residual = 4.79503e-17, Final residual = 4.79503e-17, No Iterations 0
smoothSolver:  Solving for By, Initial residual = 3.70115e-17, Final residual = 3.70115e-17, No Iterations 0
smoothSolver:  Solving for Bz, Initial residual = 0, Final residual = 0, No Iterations 0
DICPCG:  Solving for pB, Initial residual = 6.88829e-16, Final residual = 6.88829e-16, No Iterations 0
magnetic flux divergence error = 7.21645e-21
ExecutionTime = 0.29 s  ClockTime = 1 s

Courant Number mean: 0.00639249 max: 0.149661
deltaT = 5e-05
Time = 0.000547989

PIMPLE: iteration 1
diagonal:  Solving for rho, Initial residual = 0, Final residual = 0, No Iterations 0
smoothSolver:  Solving for Ux, Initial residual = 0.0244182, Final residual = 9.26946e-17, No Iterations 6
smoothSolver:  Solving for Uy, Initial residual = 0.0178174, Final residual = 1.15821e-16, No Iterations 6
smoothSolver:  Solving for Uz, Initial residual = 0, Final residual = 0, No Iterations 0
smoothSolver:  Solving for e, Initial residual = 0.0161961, Final residual = 6.5291e-17, No Iterations 6
DICPCG:  Solving for p, Initial residual = 0.00217991, Final residual = 2.30788e-16, No Iterations 3
diagonal:  Solving for rho, Initial residual = 0, Final residual = 0, No Iterations 0
time step continuity errors : sum local = 6.30607e-16, global = 4.08562e-16, cumulative = 6.26018e-15
DICPCG:  Solving for p, Initial residual = 0.000142856, Final residual = 4.91779e-17, No Iterations 3
diagonal:  Solving for rho, Initial residual = 0, Final residual = 0, No Iterations 0
time step continuity errors : sum local = 3.01241e-16, global = 1.67027e-16, cumulative = 6.42721e-15
DICPCG:  Solving for p, Initial residual = 1.28592e-05, Final residual = 2.29233e-18, No Iterations 3
diagonal:  Solving for rho, Initial residual = 0, Final residual = 0, No Iterations 0
time step continuity errors : sum local = 2.28953e-16, global = 1.82077e-16, cumulative = 6.60929e-15
smoothSolver:  Solving for Bx, Initial residual = 0.0626121, Final residual = 2.70572e-15, No Iterations 1000
smoothSolver:  Solving for By, Initial residual = 9.09852e-05, Final residual = 1.21756e-16, No Iterations 3
smoothSolver:  Solving for Bz, Initial residual = 0, Final residual = 0, No Iterations 0
DICPCG:  Solving for pB, Initial residual = 0.0495297, Final residual = 4.54723e-16, No Iterations 16
magnetic flux divergence error = 1.22125e-20
smoothSolver:  Solving for Bx, Initial residual = 7.16109e-17, Final residual = 7.16109e-17, No Iterations 0
smoothSolver:  Solving for By, Initial residual = 3.81572e-17, Final residual = 3.81572e-17, No Iterations 0
smoothSolver:  Solving for Bz, Initial residual = 0, Final residual = 0, No Iterations 0
DICPCG:  Solving for pB, Initial residual = 6.98698e-16, Final residual = 6.98698e-16, No Iterations 0
magnetic flux divergence error = 1.22125e-20
smoothSolver:  Solving for Bx, Initial residual = 7.16109e-17, Final residual = 7.16109e-17, No Iterations 0
smoothSolver:  Solving for By, Initial residual = 3.81572e-17, Final residual = 3.81572e-17, No Iterations 0
smoothSolver:  Solving for Bz, Initial residual = 0, Final residual = 0, No Iterations 0
DICPCG:  Solving for pB, Initial residual = 6.98698e-16, Final residual = 6.98698e-16, No Iterations 0
magnetic flux divergence error = 1.22125e-20
ExecutionTime = 0.3 s  ClockTime = 1 s

Courant Number mean: 0.00694815 max: 0.14745
deltaT = 5e-05
Time = 0.000597989

PIMPLE: iteration 1
diagonal:  Solving for rho, Initial residual = 0, Final residual = 0, No Iterations 0
smoothSolver:  Solving for Ux, Initial residual = 0.0239431, Final residual = 6.14666e-17, No Iterations 6
smoothSolver:  Solving for Uy, Initial residual = 0.0164296, Final residual = 1.04531e-16, No Iterations 6
smoothSolver:  Solving for Uz, Initial residual = 0, Final residual = 0, No Iterations 0
smoothSolver:  Solving for e, Initial residual = 0.0162836, Final residual = 3.15283e-17, No Iterations 6
DICPCG:  Solving for p, Initial residual = 0.00224338, Final residual = 5.43743e-16, No Iterations 3
diagonal:  Solving for rho, Initial residual = 0, Final residual = 0, No Iterations 0
time step continuity errors : sum local = 1.15044e-15, global = -1.10282e-16, cumulative = 6.499e-15
DICPCG:  Solving for p, Initial residual = 0.000137825, Final residual = 4.32155e-17, No Iterations 3
diagonal:  Solving for rho, Initial residual = 0, Final residual = 0, No Iterations 0
time step continuity errors : sum local = 2.80023e-16, global = 7.67288e-17, cumulative = 6.57573e-15
DICPCG:  Solving for p, Initial residual = 1.29613e-05, Final residual = 4.4639e-18, No Iterations 3
diagonal:  Solving for rho, Initial residual = 0, Final residual = 0, No Iterations 0
time step continuity errors : sum local = 2.22785e-16, global = 1.27059e-16, cumulative = 6.70279e-15
smoothSolver:  Solving for Bx, Initial residual = 0.0562332, Final residual = 2.41005e-15, No Iterations 1000
smoothSolver:  Solving for By, Initial residual = 9.01502e-05, Final residual = 1.22433e-16, No Iterations 3
smoothSolver:  Solving for Bz, Initial residual = 0, Final residual = 0, No Iterations 0
DICPCG:  Solving for pB, Initial residual = 0.0444254, Final residual = 4.45202e-16, No Iterations 16
magnetic flux divergence error = 1.77636e-20
smoothSolver:  Solving for Bx, Initial residual = 0, Final residual = 0, No Iterations 0
smoothSolver:  Solving for By, Initial residual = 3.81641e-17, Final residual = 3.81641e-17, No Iterations 0
smoothSolver:  Solving for Bz, Initial residual = 0, Final residual = 0, No Iterations 0
DICPCG:  Solving for pB, Initial residual = 7.49038e-16, Final residual = 7.49038e-16, No Iterations 0
magnetic flux divergence error = 1.77636e-20
smoothSolver:  Solving for Bx, Initial residual = 0, Final residual = 0, No Iterations 0
smoothSolver:  Solving for By, Initial residual = 3.81641e-17, Final residual = 3.81641e-17, No Iterations 0
smoothSolver:  Solving for Bz, Initial residual = 0, Final residual = 0, No Iterations 0
DICPCG:  Solving for pB, Initial residual = 7.49038e-16, Final residual = 7.49038e-16, No Iterations 0
magnetic flux divergence error = 1.77636e-20
ExecutionTime = 0.31 s  ClockTime = 1 s

Courant Number mean: 0.0075129 max: 0.144595
deltaT = 5e-05
Time = 0.000647989

PIMPLE: iteration 1
diagonal:  Solving for rho, Initial residual = 0, Final residual = 0, No Iterations 0
smoothSolver:  Solving for Ux, Initial residual = 0.0221221, Final residual = 7.36147e-17, No Iterations 6
smoothSolver:  Solving for Uy, Initial residual = 0.0150129, Final residual = 9.14808e-17, No Iterations 6
smoothSolver:  Solving for Uz, Initial residual = 0, Final residual = 0, No Iterations 0
smoothSolver:  Solving for e, Initial residual = 0.0174402, Final residual = 3.81917e-17, No Iterations 6
DICPCG:  Solving for p, Initial residual = 0.00227911, Final residual = 5.32799e-16, No Iterations 3
diagonal:  Solving for rho, Initial residual = 0, Final residual = 0, No Iterations 0
time step continuity errors : sum local = 1.10702e-15, global = 2.16864e-16, cumulative = 6.91966e-15
DICPCG:  Solving for p, Initial residual = 0.000143357, Final residual = 5.46747e-17, No Iterations 3
diagonal:  Solving for rho, Initial residual = 0, Final residual = 0, No Iterations 0
time step continuity errors : sum local = 3.24679e-16, global = 1.653e-16, cumulative = 7.08496e-15
DICPCG:  Solving for p, Initial residual = 1.1422e-05, Final residual = 4.48973e-18, No Iterations 3
diagonal:  Solving for rho, Initial residual = 0, Final residual = 0, No Iterations 0
time step continuity errors : sum local = 2.4869e-16, global = 1.4803e-16, cumulative = 7.23299e-15
smoothSolver:  Solving for Bx, Initial residual = 0.0501414, Final residual = 2.10803e-15, No Iterations 1000
smoothSolver:  Solving for By, Initial residual = 8.93271e-05, Final residual = 1.19568e-16, No Iterations 3
smoothSolver:  Solving for Bz, Initial residual = 0, Final residual = 0, No Iterations 0
DICPCG:  Solving for pB, Initial residual = 0.0408139, Final residual = 4.21474e-16, No Iterations 16
magnetic flux divergence error = 1.83187e-20
smoothSolver:  Solving for Bx, Initial residual = 9.59912e-17, Final residual = 9.59912e-17, No Iterations 0
smoothSolver:  Solving for By, Initial residual = 3.53224e-17, Final residual = 3.53224e-17, No Iterations 0
smoothSolver:  Solving for Bz, Initial residual = 0, Final residual = 0, No Iterations 0
DICPCG:  Solving for pB, Initial residual = 8.59147e-16, Final residual = 8.59147e-16, No Iterations 0
magnetic flux divergence error = 1.83187e-20
smoothSolver:  Solving for Bx, Initial residual = 9.59912e-17, Final residual = 9.59912e-17, No Iterations 0
smoothSolver:  Solving for By, Initial residual = 3.53224e-17, Final residual = 3.53224e-17, No Iterations 0
smoothSolver:  Solving for Bz, Initial residual = 0, Final residual = 0, No Iterations 0
DICPCG:  Solving for pB, Initial residual = 8.59147e-16, Final residual = 8.59147e-16, No Iterations 0
magnetic flux divergence error = 1.83187e-20
ExecutionTime = 0.32 s  ClockTime = 1 s

Courant Number mean: 0.00808401 max: 0.146119
deltaT = 5e-05
Time = 0.000697989

PIMPLE: iteration 1
diagonal:  Solving for rho, Initial residual = 0, Final residual = 0, No Iterations 0
smoothSolver:  Solving for Ux, Initial residual = 0.0199717, Final residual = 7.94389e-17, No Iterations 6
smoothSolver:  Solving for Uy, Initial residual = 0.0136004, Final residual = 8.04376e-17, No Iterations 6
smoothSolver:  Solving for Uz, Initial residual = 0, Final residual = 0, No Iterations 0
smoothSolver:  Solving for e, Initial residual = 0.0176569, Final residual = 6.60877e-17, No Iterations 6
DICPCG:  Solving for p, Initial residual = 0.00241162, Final residual = 4.68419e-16, No Iterations 3
diagonal:  Solving for rho, Initial residual = 0, Final residual = 0, No Iterations 0
time step continuity errors : sum local = 1.00636e-15, global = 1.87751e-16, cumulative = 7.42074e-15
DICPCG:  Solving for p, Initial residual = 0.000160423, Final residual = 6.88815e-17, No Iterations 3
diagonal:  Solving for rho, Initial residual = 0, Final residual = 0, No Iterations 0
time step continuity errors : sum local = 3.37261e-16, global = 1.54198e-16, cumulative = 7.57493e-15
DICPCG:  Solving for p, Initial residual = 1.43464e-05, Final residual = 7.39023e-18, No Iterations 3
diagonal:  Solving for rho, Initial residual = 0, Final residual = 0, No Iterations 0
time step continuity errors : sum local = 2.50664e-16, global = 8.14164e-17, cumulative = 7.65635e-15
smoothSolver:  Solving for Bx, Initial residual = 0.0459835, Final residual = 1.88327e-15, No Iterations 1000
smoothSolver:  Solving for By, Initial residual = 8.85155e-05, Final residual = 1.20648e-16, No Iterations 3
smoothSolver:  Solving for Bz, Initial residual = 0, Final residual = 0, No Iterations 0
DICPCG:  Solving for pB, Initial residual = 0.0394768, Final residual = 3.96565e-16, No Iterations 16
magnetic flux divergence error = 2.72005e-20
smoothSolver:  Solving for Bx, Initial residual = 1.00311e-16, Final residual = 1.00311e-16, No Iterations 0
smoothSolver:  Solving for By, Initial residual = 3.76079e-17, Final residual = 3.76079e-17, No Iterations 0
smoothSolver:  Solving for Bz, Initial residual = 0, Final residual = 0, No Iterations 0
DICPCG:  Solving for pB, Initial residual = 1.25192e-15, Final residual = 2.19569e-16, No Iterations 1
magnetic flux divergence error = 7.21645e-21
smoothSolver:  Solving for Bx, Initial residual = 2.22912e-17, Final residual = 2.22912e-17, No Iterations 0
smoothSolver:  Solving for By, Initial residual = 3.76079e-17, Final residual = 3.76079e-17, No Iterations 0
smoothSolver:  Solving for Bz, Initial residual = 0, Final residual = 0, No Iterations 0
DICPCG:  Solving for pB, Initial residual = 3.65843e-16, Final residual = 3.65843e-16, No Iterations 0
magnetic flux divergence error = 7.21645e-21
ExecutionTime = 0.33 s  ClockTime = 1 s

Courant Number mean: 0.00866089 max: 0.1445
deltaT = 5e-05
Time = 0.000747989

PIMPLE: iteration 1
diagonal:  Solving for rho, Initial residual = 0, Final residual = 0, No Iterations 0
smoothSolver:  Solving for Ux, Initial residual = 0.0188943, Final residual = 5.59524e-17, No Iterations 6
smoothSolver:  Solving for Uy, Initial residual = 0.0122347, Final residual = 8.51365e-17, No Iterations 6
smoothSolver:  Solving for Uz, Initial residual = 0, Final residual = 0, No Iterations 0
smoothSolver:  Solving for e, Initial residual = 0.01734, Final residual = 4.16483e-17, No Iterations 6
DICPCG:  Solving for p, Initial residual = 0.00236089, Final residual = 7.21438e-16, No Iterations 3
diagonal:  Solving for rho, Initial residual = 0, Final residual = 0, No Iterations 0
time step continuity errors : sum local = 1.42997e-15, global = -3.17277e-16, cumulative = 7.33907e-15
DICPCG:  Solving for p, Initial residual = 0.000154787, Final residual = 7.86959e-17, No Iterations 3
diagonal:  Solving for rho, Initial residual = 0, Final residual = 0, No Iterations 0
time step continuity errors : sum local = 3.35781e-16, global = 1.56665e-16, cumulative = 7.49574e-15
DICPCG:  Solving for p, Initial residual = 1.43192e-05, Final residual = 6.54525e-18, No Iterations 3
diagonal:  Solving for rho, Initial residual = 0, Final residual = 0, No Iterations 0
time step continuity errors : sum local = 2.30433e-16, global = 1.64313e-16, cumulative = 7.66005e-15
smoothSolver:  Solving for Bx, Initial residual = 0.0425072, Final residual = 1.79226e-15, No Iterations 1000
smoothSolver:  Solving for By, Initial residual = 8.77153e-05, Final residual = 1.22001e-16, No Iterations 3
smoothSolver:  Solving for Bz, Initial residual = 0, Final residual = 0, No Iterations 0
DICPCG:  Solving for pB, Initial residual = 0.0368907, Final residual = 3.6027e-16, No Iterations 16
magnetic flux divergence error = 1.55431e-20
smoothSolver:  Solving for Bx, Initial residual = 3.12683e-17, Final residual = 3.12683e-17, No Iterations 0
smoothSolver:  Solving for By, Initial residual = 3.81844e-17, Final residual = 3.81844e-17, No Iterations 0
smoothSolver:  Solving for Bz, Initial residual = 0, Final residual = 0, No Iterations 0
DICPCG:  Solving for pB, Initial residual = 8.16457e-16, Final residual = 8.16457e-16, No Iterations 0
magnetic flux divergence error = 1.55431e-20
smoothSolver:  Solving for Bx, Initial residual = 3.12683e-17, Final residual = 3.12683e-17, No Iterations 0
smoothSolver:  Solving for By, Initial residual = 3.81844e-17, Final residual = 3.81844e-17, No Iterations 0
smoothSolver:  Solving for Bz, Initial residual = 0, Final residual = 0, No Iterations 0
DICPCG:  Solving for pB, Initial residual = 8.16457e-16, Final residual = 8.16457e-16, No Iterations 0
magnetic flux divergence error = 1.55431e-20
ExecutionTime = 0.35 s  ClockTime = 1 s

Courant Number mean: 0.00923772 max: 0.141201
deltaT = 5e-05
Time = 0.000797989

PIMPLE: iteration 1
diagonal:  Solving for rho, Initial residual = 0, Final residual = 0, No Iterations 0
smoothSolver:  Solving for Ux, Initial residual = 0.0171285, Final residual = 6.87736e-17, No Iterations 6
smoothSolver:  Solving for Uy, Initial residual = 0.0116174, Final residual = 7.11062e-17, No Iterations 6
smoothSolver:  Solving for Uz, Initial residual = 0, Final residual = 0, No Iterations 0
smoothSolver:  Solving for e, Initial residual = 0.0177542, Final residual = 4.64543e-17, No Iterations 6
DICPCG:  Solving for p, Initial residual = 0.00238276, Final residual = 2.71667e-16, No Iterations 3
diagonal:  Solving for rho, Initial residual = 0, Final residual = 0, No Iterations 0
time step continuity errors : sum local = 6.48864e-16, global = 2.68921e-16, cumulative = 7.92897e-15
DICPCG:  Solving for p, Initial residual = 0.000160522, Final residual = 6.0805e-17, No Iterations 3
diagonal:  Solving for rho, Initial residual = 0, Final residual = 0, No Iterations 0
time step continuity errors : sum local = 3.22458e-16, global = 1.32487e-16, cumulative = 8.06146e-15
DICPCG:  Solving for p, Initial residual = 1.34348e-05, Final residual = 5.31298e-18, No Iterations 3
diagonal:  Solving for rho, Initial residual = 0, Final residual = 0, No Iterations 0
time step continuity errors : sum local = 2.51157e-16, global = 8.04296e-17, cumulative = 8.14189e-15
smoothSolver:  Solving for Bx, Initial residual = 0.0387618, Final residual = 1.74032e-15, No Iterations 1000
smoothSolver:  Solving for By, Initial residual = 8.69263e-05, Final residual = 1.23285e-16, No Iterations 3
smoothSolver:  Solving for Bz, Initial residual = 0, Final residual = 0, No Iterations 0
DICPCG:  Solving for pB, Initial residual = 0.0335134, Final residual = 3.36397e-16, No Iterations 16
magnetic flux divergence error = 2.22045e-20
smoothSolver:  Solving for Bx, Initial residual = 1.46957e-16, Final residual = 1.46957e-16, No Iterations 0
smoothSolver:  Solving for By, Initial residual = 3.7621e-17, Final residual = 3.7621e-17, No Iterations 0
smoothSolver:  Solving for Bz, Initial residual = 0, Final residual = 0, No Iterations 0
DICPCG:  Solving for pB, Initial residual = 8.31537e-16, Final residual = 8.31537e-16, No Iterations 0
magnetic flux divergence error = 2.22045e-20
smoothSolver:  Solving for Bx, Initial residual = 1.46957e-16, Final residual = 1.46957e-16, No Iterations 0
smoothSolver:  Solving for By, Initial residual = 3.7621e-17, Final residual = 3.7621e-17, No Iterations 0
smoothSolver:  Solving for Bz, Initial residual = 0, Final residual = 0, No Iterations 0
DICPCG:  Solving for pB, Initial residual = 8.31537e-16, Final residual = 8.31537e-16, No Iterations 0
magnetic flux divergence error = 2.22045e-20
ExecutionTime = 0.36 s  ClockTime = 1 s

Courant Number mean: 0.00981227 max: 0.141781
deltaT = 5e-05
Time = 0.000847989

PIMPLE: iteration 1
diagonal:  Solving for rho, Initial residual = 0, Final residual = 0, No Iterations 0
smoothSolver:  Solving for Ux, Initial residual = 0.0157182, Final residual = 5.319e-17, No Iterations 6
smoothSolver:  Solving for Uy, Initial residual = 0.0111076, Final residual = 4.6164e-17, No Iterations 6
smoothSolver:  Solving for Uz, Initial residual = 0, Final residual = 0, No Iterations 0
smoothSolver:  Solving for e, Initial residual = 0.0175942, Final residual = 4.38435e-17, No Iterations 6
DICPCG:  Solving for p, Initial residual = 0.00246468, Final residual = 4.11918e-16, No Iterations 3
diagonal:  Solving for rho, Initial residual = 0, Final residual = 0, No Iterations 0
time step continuity errors : sum local = 8.92867e-16, global = 2.93593e-17, cumulative = 8.17125e-15
DICPCG:  Solving for p, Initial residual = 0.000169367, Final residual = 7.00538e-17, No Iterations 3
diagonal:  Solving for rho, Initial residual = 0, Final residual = 0, No Iterations 0
time step continuity errors : sum local = 2.91125e-16, global = 1.51977e-16, cumulative = 8.32323e-15
DICPCG:  Solving for p, Initial residual = 1.50739e-05, Final residual = 6.28014e-18, No Iterations 3
diagonal:  Solving for rho, Initial residual = 0, Final residual = 0, No Iterations 0
time step continuity errors : sum local = 2.43016e-16, global = 1.00907e-16, cumulative = 8.42413e-15
smoothSolver:  Solving for Bx, Initial residual = 0.0366663, Final residual = 1.56461e-15, No Iterations 1000
smoothSolver:  Solving for By, Initial residual = 8.61483e-05, Final residual = 1.17342e-16, No Iterations 3
smoothSolver:  Solving for Bz, Initial residual = 0, Final residual = 0, No Iterations 0
DICPCG:  Solving for pB, Initial residual = 0.0331661, Final residual = 3.14236e-16, No Iterations 16
magnetic flux divergence error = 2.498e-20
smoothSolver:  Solving for Bx, Initial residual = 1.20201e-16, Final residual = 1.20201e-16, No Iterations 0
smoothSolver:  Solving for By, Initial residual = 3.24965e-17, Final residual = 3.24965e-17, No Iterations 0
smoothSolver:  Solving for Bz, Initial residual = 0, Final residual = 0, No Iterations 0
DICPCG:  Solving for pB, Initial residual = 9.28559e-16, Final residual = 9.28559e-16, No Iterations 0
magnetic flux divergence error = 2.498e-20
smoothSolver:  Solving for Bx, Initial residual = 1.20201e-16, Final residual = 1.20201e-16, No Iterations 0
smoothSolver:  Solving for By, Initial residual = 3.24965e-17, Final residual = 3.24965e-17, No Iterations 0
smoothSolver:  Solving for Bz, Initial residual = 0, Final residual = 0, No Iterations 0
DICPCG:  Solving for pB, Initial residual = 9.28559e-16, Final residual = 9.28559e-16, No Iterations 0
magnetic flux divergence error = 2.498e-20
ExecutionTime = 0.37 s  ClockTime = 1 s

Courant Number mean: 0.0103862 max: 0.139673
deltaT = 5e-05
Time = 0.000897989

PIMPLE: iteration 1
diagonal:  Solving for rho, Initial residual = 0, Final residual = 0, No Iterations 0
smoothSolver:  Solving for Ux, Initial residual = 0.0147531, Final residual = 3.52333e-17, No Iterations 6
smoothSolver:  Solving for Uy, Initial residual = 0.010605, Final residual = 4.57319e-17, No Iterations 6
smoothSolver:  Solving for Uz, Initial residual = 0, Final residual = 0, No Iterations 0
smoothSolver:  Solving for e, Initial residual = 0.0175778, Final residual = 4.51356e-17, No Iterations 6
DICPCG:  Solving for p, Initial residual = 0.00243461, Final residual = 6.10222e-16, No Iterations 3
diagonal:  Solving for rho, Initial residual = 0, Final residual = 0, No Iterations 0
time step continuity errors : sum local = 1.20102e-15, global = -5.57579e-16, cumulative = 7.86655e-15
DICPCG:  Solving for p, Initial residual = 0.000155812, Final residual = 6.94174e-17, No Iterations 3
diagonal:  Solving for rho, Initial residual = 0, Final residual = 0, No Iterations 0
time step continuity errors : sum local = 3.37755e-16, global = 1.45316e-16, cumulative = 8.01187e-15
DICPCG:  Solving for p, Initial residual = 1.36888e-05, Final residual = 5.34336e-18, No Iterations 3
diagonal:  Solving for rho, Initial residual = 0, Final residual = 0, No Iterations 0
time step continuity errors : sum local = 2.57819e-16, global = 1.31993e-16, cumulative = 8.14386e-15
smoothSolver:  Solving for Bx, Initial residual = 0.0341666, Final residual = 1.55357e-15, No Iterations 1000
smoothSolver:  Solving for By, Initial residual = 8.53811e-05, Final residual = 1.20469e-16, No Iterations 3
smoothSolver:  Solving for Bz, Initial residual = 0, Final residual = 0, No Iterations 0
DICPCG:  Solving for pB, Initial residual = 0.0311849, Final residual = 2.89346e-16, No Iterations 16
magnetic flux divergence error = 2.77556e-20
smoothSolver:  Solving for Bx, Initial residual = 8.75517e-17, Final residual = 8.75517e-17, No Iterations 0
smoothSolver:  Solving for By, Initial residual = 3.87743e-17, Final residual = 3.87743e-17, No Iterations 0
smoothSolver:  Solving for Bz, Initial residual = 0, Final residual = 0, No Iterations 0
DICPCG:  Solving for pB, Initial residual = 1.19121e-15, Final residual = 6.51225e-17, No Iterations 1
magnetic flux divergence error = 1.11022e-20
smoothSolver:  Solving for Bx, Initial residual = 6.12862e-17, Final residual = 6.12862e-17, No Iterations 0
smoothSolver:  Solving for By, Initial residual = 3.87743e-17, Final residual = 3.87743e-17, No Iterations 0
smoothSolver:  Solving for Bz, Initial residual = 0, Final residual = 0, No Iterations 0
DICPCG:  Solving for pB, Initial residual = 1.99744e-16, Final residual = 1.99744e-16, No Iterations 0
magnetic flux divergence error = 1.11022e-20
ExecutionTime = 0.38 s  ClockTime = 1 s

Courant Number mean: 0.0109526 max: 0.139032
deltaT = 5e-05
Time = 0.000947989

PIMPLE: iteration 1
diagonal:  Solving for rho, Initial residual = 0, Final residual = 0, No Iterations 0
smoothSolver:  Solving for Ux, Initial residual = 0.0135011, Final residual = 5.59317e-17, No Iterations 6
smoothSolver:  Solving for Uy, Initial residual = 0.0100993, Final residual = 4.4128e-17, No Iterations 6
smoothSolver:  Solving for Uz, Initial residual = 0, Final residual = 0, No Iterations 0
smoothSolver:  Solving for e, Initial residual = 0.0177967, Final residual = 4.41425e-17, No Iterations 6
DICPCG:  Solving for p, Initial residual = 0.00246293, Final residual = 2.3604e-16, No Iterations 3
diagonal:  Solving for rho, Initial residual = 0, Final residual = 0, No Iterations 0
time step continuity errors : sum local = 5.79784e-16, global = -8.04296e-17, cumulative = 8.06343e-15
DICPCG:  Solving for p, Initial residual = 0.000158995, Final residual = 4.9017e-17, No Iterations 3
diagonal:  Solving for rho, Initial residual = 0, Final residual = 0, No Iterations 0
time step continuity errors : sum local = 3.00501e-16, global = 1.26812e-16, cumulative = 8.19024e-15
DICPCG:  Solving for p, Initial residual = 1.34288e-05, Final residual = 4.59897e-18, No Iterations 3
diagonal:  Solving for rho, Initial residual = 0, Final residual = 0, No Iterations 0
time step continuity errors : sum local = 2.07982e-16, global = 6.19258e-17, cumulative = 8.25217e-15
smoothSolver:  Solving for Bx, Initial residual = 0.0320916, Final residual = 1.54287e-15, No Iterations 1000
smoothSolver:  Solving for By, Initial residual = 8.46246e-05, Final residual = 1.1384e-16, No Iterations 3
smoothSolver:  Solving for Bz, Initial residual = 0, Final residual = 0, No Iterations 0
DICPCG:  Solving for pB, Initial residual = 0.0295637, Final residual = 2.7053e-16, No Iterations 16
magnetic flux divergence error = 2.94209e-20
smoothSolver:  Solving for Bx, Initial residual = 7.48207e-17, Final residual = 7.48207e-17, No Iterations 0
smoothSolver:  Solving for By, Initial residual = 2.9656e-17, Final residual = 2.9656e-17, No Iterations 0
smoothSolver:  Solving for Bz, Initial residual = 0, Final residual = 0, No Iterations 0
DICPCG:  Solving for pB, Initial residual = 1.5176e-15, Final residual = 5.62043e-16, No Iterations 1
magnetic flux divergence error = 1.94289e-20
smoothSolver:  Solving for Bx, Initial residual = 3.32537e-17, Final residual = 3.32537e-17, No Iterations 0
smoothSolver:  Solving for By, Initial residual = 2.9656e-17, Final residual = 2.9656e-17, No Iterations 0
smoothSolver:  Solving for Bz, Initial residual = 0, Final residual = 0, No Iterations 0
DICPCG:  Solving for pB, Initial residual = 7.15181e-16, Final residual = 7.15181e-16, No Iterations 0
magnetic flux divergence error = 1.94289e-20
ExecutionTime = 0.39 s  ClockTime = 1 s

Courant Number mean: 0.0115146 max: 0.138541
deltaT = 5e-05
Time = 0.000997989

PIMPLE: iteration 1
diagonal:  Solving for rho, Initial residual = 0, Final residual = 0, No Iterations 0
smoothSolver:  Solving for Ux, Initial residual = 0.0127987, Final residual = 4.38526e-17, No Iterations 6
smoothSolver:  Solving for Uy, Initial residual = 0.00959211, Final residual = 3.11762e-17, No Iterations 6
smoothSolver:  Solving for Uz, Initial residual = 0, Final residual = 0, No Iterations 0
smoothSolver:  Solving for e, Initial residual = 0.0173385, Final residual = 4.25817e-17, No Iterations 6
DICPCG:  Solving for p, Initial residual = 0.00246467, Final residual = 3.36377e-16, No Iterations 3
diagonal:  Solving for rho, Initial residual = 0, Final residual = 0, No Iterations 0
time step continuity errors : sum local = 8.01828e-16, global = -4.04615e-17, cumulative = 8.21171e-15
DICPCG:  Solving for p, Initial residual = 0.000165264, Final residual = 5.65431e-17, No Iterations 3
diagonal:  Solving for rho, Initial residual = 0, Final residual = 0, No Iterations 0
time step continuity errors : sum local = 2.90632e-16, global = 1.38161e-16, cumulative = 8.34987e-15
DICPCG:  Solving for p, Initial residual = 1.43242e-05, Final residual = 4.52453e-18, No Iterations 3
diagonal:  Solving for rho, Initial residual = 0, Final residual = 0, No Iterations 0
time step continuity errors : sum local = 2.53624e-16, global = 1.53951e-16, cumulative = 8.50382e-15
smoothSolver:  Solving for Bx, Initial residual = 0.0308091, Final residual = 1.27711e-15, No Iterations 1000
smoothSolver:  Solving for By, Initial residual = 8.38786e-05, Final residual = 1.20752e-16, No Iterations 3
smoothSolver:  Solving for Bz, Initial residual = 0, Final residual = 0, No Iterations 0
DICPCG:  Solving for pB, Initial residual = 0.0308555, Final residual = 2.48261e-16, No Iterations 16
magnetic flux divergence error = 3.16414e-20
smoothSolver:  Solving for Bx, Initial residual = 1.26615e-16, Final residual = 1.26615e-16, No Iterations 0
smoothSolver:  Solving for By, Initial residual = 3.59354e-17, Final residual = 3.59354e-17, No Iterations 0
smoothSolver:  Solving for Bz, Initial residual = 0, Final residual = 0, No Iterations 0
DICPCG:  Solving for pB, Initial residual = 1.40782e-15, Final residual = 1.23353e-16, No Iterations 1
magnetic flux divergence error = 9.4369e-21
smoothSolver:  Solving for Bx, Initial residual = 3.16538e-17, Final residual = 3.16538e-17, No Iterations 0
smoothSolver:  Solving for By, Initial residual = 3.59354e-17, Final residual = 3.59354e-17, No Iterations 0
smoothSolver:  Solving for Bz, Initial residual = 0, Final residual = 0, No Iterations 0
DICPCG:  Solving for pB, Initial residual = 3.80353e-16, Final residual = 3.80353e-16, No Iterations 0
magnetic flux divergence error = 9.4369e-21
ExecutionTime = 0.41 s  ClockTime = 1 s

    functionObjects::components components(U) writing field: Ux
    functionObjects::components components(U) writing field: Uy
    functionObjects::components components(U) writing field: Uz
Courant Number mean: 0.012076 max: 0.135571
deltaT = 5e-05
Time = 0.00104799

PIMPLE: iteration 1
diagonal:  Solving for rho, Initial residual = 0, Final residual = 0, No Iterations 0
smoothSolver:  Solving for Ux, Initial residual = 0.0120551, Final residual = 3.37027e-17, No Iterations 6
smoothSolver:  Solving for Uy, Initial residual = 0.00909025, Final residual = 2.73602e-17, No Iterations 6
smoothSolver:  Solving for Uz, Initial residual = 0, Final residual = 0, No Iterations 0
smoothSolver:  Solving for e, Initial residual = 0.0167737, Final residual = 4.51554e-17, No Iterations 6
DICPCG:  Solving for p, Initial residual = 0.00240155, Final residual = 5.75564e-16, No Iterations 3
diagonal:  Solving for rho, Initial residual = 0, Final residual = 0, No Iterations 0
time step continuity errors : sum local = 1.12873e-15, global = -4.33481e-16, cumulative = 8.07034e-15
DICPCG:  Solving for p, Initial residual = 0.000147159, Final residual = 7.5228e-17, No Iterations 3
diagonal:  Solving for rho, Initial residual = 0, Final residual = 0, No Iterations 0
time step continuity errors : sum local = 3.1481e-16, global = 1.22865e-16, cumulative = 8.19321e-15
DICPCG:  Solving for p, Initial residual = 1.26296e-05, Final residual = 3.60751e-18, No Iterations 3
diagonal:  Solving for rho, Initial residual = 0, Final residual = 0, No Iterations 0
time step continuity errors : sum local = 2.43016e-16, global = 1.3298e-16, cumulative = 8.32619e-15
smoothSolver:  Solving for Bx, Initial residual = 0.0290132, Final residual = 1.24093e-15, No Iterations 1000
smoothSolver:  Solving for By, Initial residual = 8.31429e-05, Final residual = 1.19566e-16, No Iterations 3
smoothSolver:  Solving for Bz, Initial residual = 0, Final residual = 0, No Iterations 0
DICPCG:  Solving for pB, Initial residual = 0.0296548, Final residual = 2.35395e-16, No Iterations 16
magnetic flux divergence error = 2.38698e-20
smoothSolver:  Solving for Bx, Initial residual = 6.0397e-17, Final residual = 6.0397e-17, No Iterations 0
smoothSolver:  Solving for By, Initial residual = 3.53709e-17, Final residual = 3.53709e-17, No Iterations 0
smoothSolver:  Solving for Bz, Initial residual = 0, Final residual = 0, No Iterations 0
DICPCG:  Solving for pB, Initial residual = 1.36333e-15, Final residual = 5.45211e-16, No Iterations 1
magnetic flux divergence error = 2.05391e-20
smoothSolver:  Solving for Bx, Initial residual = 3.77481e-17, Final residual = 3.77481e-17, No Iterations 0
smoothSolver:  Solving for By, Initial residual = 3.53709e-17, Final residual = 3.53709e-17, No Iterations 0
smoothSolver:  Solving for Bz, Initial residual = 0, Final residual = 0, No Iterations 0
DICPCG:  Solving for pB, Initial residual = 6.97296e-16, Final residual = 6.97296e-16, No Iterations 0
magnetic flux divergence error = 2.05391e-20
ExecutionTime = 0.42 s  ClockTime = 1 s

Courant Number mean: 0.0126313 max: 0.136869
deltaT = 5e-05
Time = 0.00109799

PIMPLE: iteration 1
diagonal:  Solving for rho, Initial residual = 0, Final residual = 0, No Iterations 0
smoothSolver:  Solving for Ux, Initial residual = 0.0111526, Final residual = 4.26302e-17, No Iterations 6
smoothSolver:  Solving for Uy, Initial residual = 0.00874009, Final residual = 1.97045e-17, No Iterations 6
smoothSolver:  Solving for Uz, Initial residual = 0, Final residual = 0, No Iterations 0
smoothSolver:  Solving for e, Initial residual = 0.0168681, Final residual = 3.57939e-17, No Iterations 6
DICPCG:  Solving for p, Initial residual = 0.00245134, Final residual = 3.96239e-16, No Iterations 3
diagonal:  Solving for rho, Initial residual = 0, Final residual = 0, No Iterations 0
time step continuity errors : sum local = 8.73376e-16, global = -2.27966e-16, cumulative = 8.09822e-15
DICPCG:  Solving for p, Initial residual = 0.000161882, Final residual = 5.07381e-17, No Iterations 3
diagonal:  Solving for rho, Initial residual = 0, Final residual = 0, No Iterations 0
time step continuity errors : sum local = 2.80763e-16, global = 1.05595e-16, cumulative = 8.20381e-15
DICPCG:  Solving for p, Initial residual = 1.32205e-05, Final residual = 3.8412e-18, No Iterations 3
diagonal:  Solving for rho, Initial residual = 0, Final residual = 0, No Iterations 0
time step continuity errors : sum local = 2.39315e-16, global = 1.09542e-16, cumulative = 8.31336e-15
smoothSolver:  Solving for Bx, Initial residual = 0.0283698, Final residual = 1.21607e-15, No Iterations 1000
smoothSolver:  Solving for By, Initial residual = 8.24175e-05, Final residual = 1.18317e-16, No Iterations 3
smoothSolver:  Solving for Bz, Initial residual = 0, Final residual = 0, No Iterations 0
DICPCG:  Solving for pB, Initial residual = 0.0297571, Final residual = 2.1758e-16, No Iterations 16
magnetic flux divergence error = 3.10862e-20
smoothSolver:  Solving for Bx, Initial residual = 6.49573e-17, Final residual = 6.49573e-17, No Iterations 0
smoothSolver:  Solving for By, Initial residual = 3.42355e-17, Final residual = 3.42355e-17, No Iterations 0
smoothSolver:  Solving for Bz, Initial residual = 0, Final residual = 0, No Iterations 0
DICPCG:  Solving for pB, Initial residual = 1.19415e-15, Final residual = 5.50877e-16, No Iterations 1
magnetic flux divergence error = 1.88738e-20
smoothSolver:  Solving for Bx, Initial residual = 7.21748e-17, Final residual = 7.21748e-17, No Iterations 0
smoothSolver:  Solving for By, Initial residual = 3.42355e-17, Final residual = 3.42355e-17, No Iterations 0
smoothSolver:  Solving for Bz, Initial residual = 0, Final residual = 0, No Iterations 0
DICPCG:  Solving for pB, Initial residual = 4.7918e-16, Final residual = 4.7918e-16, No Iterations 0
magnetic flux divergence error = 1.88738e-20
ExecutionTime = 0.43 s  ClockTime = 1 s

Courant Number mean: 0.0131858 max: 0.13557
deltaT = 5e-05
Time = 0.00114799

PIMPLE: iteration 1
diagonal:  Solving for rho, Initial residual = 0, Final residual = 0, No Iterations 0
smoothSolver:  Solving for Ux, Initial residual = 0.0109032, Final residual = 3.62887e-17, No Iterations 6
smoothSolver:  Solving for Uy, Initial residual = 0.00883562, Final residual = 2.42935e-17, No Iterations 6
smoothSolver:  Solving for Uz, Initial residual = 0, Final residual = 0, No Iterations 0
smoothSolver:  Solving for e, Initial residual = 0.0162431, Final residual = 3.58361e-17, No Iterations 6
DICPCG:  Solving for p, Initial residual = 0.00246342, Final residual = 3.71906e-16, No Iterations 3
diagonal:  Solving for rho, Initial residual = 0, Final residual = 0, No Iterations 0
time step continuity errors : sum local = 7.90726e-16, global = -1.63573e-16, cumulative = 8.14978e-15
DICPCG:  Solving for p, Initial residual = 0.000155843, Final residual = 6.53522e-17, No Iterations 3
diagonal:  Solving for rho, Initial residual = 0, Final residual = 0, No Iterations 0
time step continuity errors : sum local = 3.13823e-16, global = 1.52964e-16, cumulative = 8.30275e-15
DICPCG:  Solving for p, Initial residual = 1.33079e-05, Final residual = 3.25603e-18, No Iterations 3
diagonal:  Solving for rho, Initial residual = 0, Final residual = 0, No Iterations 0
time step continuity errors : sum local = 2.37835e-16, global = 6.51331e-17, cumulative = 8.36788e-15
smoothSolver:  Solving for Bx, Initial residual = 0.0275636, Final residual = 1.06429e-15, No Iterations 1000
smoothSolver:  Solving for By, Initial residual = 8.17022e-05, Final residual = 1.18565e-16, No Iterations 3
smoothSolver:  Solving for Bz, Initial residual = 0, Final residual = 0, No Iterations 0
DICPCG:  Solving for pB, Initial residual = 0.0299722, Final residual = 1.96633e-16, No Iterations 16
magnetic flux divergence error = 2.38698e-20
smoothSolver:  Solving for Bx, Initial residual = 8.98743e-17, Final residual = 8.98743e-17, No Iterations 0
smoothSolver:  Solving for By, Initial residual = 3.36704e-17, Final residual = 3.36704e-17, No Iterations 0
smoothSolver:  Solving for Bz, Initial residual = 0, Final residual = 0, No Iterations 0
DICPCG:  Solving for pB, Initial residual = 1.07499e-15, Final residual = 5.08229e-17, No Iterations 1
magnetic flux divergence error = 1.4988e-20
smoothSolver:  Solving for Bx, Initial residual = 3.45671e-17, Final residual = 3.45671e-17, No Iterations 0
smoothSolver:  Solving for By, Initial residual = 3.36704e-17, Final residual = 3.36704e-17, No Iterations 0
smoothSolver:  Solving for Bz, Initial residual = 0, Final residual = 0, No Iterations 0
DICPCG:  Solving for pB, Initial residual = 4.482e-16, Final residual = 4.482e-16, No Iterations 0
magnetic flux divergence error = 1.4988e-20
ExecutionTime = 0.44 s  ClockTime = 1 s

Courant Number mean: 0.0137407 max: 0.132972
deltaT = 5e-05
Time = 0.00119799

PIMPLE: iteration 1
diagonal:  Solving for rho, Initial residual = 0, Final residual = 0, No Iterations 0
smoothSolver:  Solving for Ux, Initial residual = 0.0104755, Final residual = 2.86409e-17, No Iterations 6
smoothSolver:  Solving for Uy, Initial residual = 0.00899485, Final residual = 3.27838e-17, No Iterations 6
smoothSolver:  Solving for Uz, Initial residual = 0, Final residual = 0, No Iterations 0
smoothSolver:  Solving for e, Initial residual = 0.0157524, Final residual = 3.90641e-17, No Iterations 6
DICPCG:  Solving for p, Initial residual = 0.00241005, Final residual = 7.03759e-16, No Iterations 3
diagonal:  Solving for rho, Initial residual = 0, Final residual = 0, No Iterations 0
time step continuity errors : sum local = 1.30464e-15, global = -2.59546e-16, cumulative = 8.10834e-15
[...]
smoothSolver:  Solving for Uy, Initial residual = 0.00219514, Final residual = 2.00184e-17, No Iterations 6
smoothSolver:  Solving for Uz, Initial residual = 0, Final residual = 0, No Iterations 0
smoothSolver:  Solving for e, Initial residual = 0.0029053, Final residual = 2.44989e-17, No Iterations 6
DICPCG:  Solving for p, Initial residual = 0.00286404, Final residual = 4.06887e-16, No Iterations 3
diagonal:  Solving for rho, Initial residual = 0, Final residual = 0, No Iterations 0
time step continuity errors : sum local = 4.06669e-16, global = 1.07071e-16, cumulative = 2.89799e-14
DICPCG:  Solving for p, Initial residual = 2.82536e-05, Final residual = 1.14224e-17, No Iterations 3
diagonal:  Solving for rho, Initial residual = 0, Final residual = 0, No Iterations 0
time step continuity errors : sum local = 2.05597e-16, global = 6.53486e-18, cumulative = 2.89864e-14
DICPCG:  Solving for p, Initial residual = 2.17018e-06, Final residual = 3.20132e-19, No Iterations 3
diagonal:  Solving for rho, Initial residual = 0, Final residual = 0, No Iterations 0
time step continuity errors : sum local = 2.58378e-16, global = -3.92092e-17, cumulative = 2.89472e-14
smoothSolver:  Solving for Bx, Initial residual = 0.00239137, Final residual = 1.87427e-16, No Iterations 4
smoothSolver:  Solving for By, Initial residual = 3.23097e-05, Final residual = 7.91549e-17, No Iterations 3
smoothSolver:  Solving for Bz, Initial residual = 0, Final residual = 0, No Iterations 0
DICPCG:  Solving for pB, Initial residual = 0.000857175, Final residual = 1.5027e-16, No Iterations 15
magnetic flux divergence error = 1.44884e-18
smoothSolver:  Solving for Bx, Initial residual = 2.07408e-06, Final residual = 1.90592e-16, No Iterations 3
smoothSolver:  Solving for By, Initial residual = 5.7891e-11, Final residual = 6.79943e-17, No Iterations 2
smoothSolver:  Solving for Bz, Initial residual = 0, Final residual = 0, No Iterations 0
DICPCG:  Solving for pB, Initial residual = 7.55796e-07, Final residual = 6.31494e-17, No Iterations 13
magnetic flux divergence error = 9.88654e-19
smoothSolver:  Solving for Bx, Initial residual = 1.79878e-09, Final residual = 1.65807e-16, No Iterations 2
smoothSolver:  Solving for By, Initial residual = 5.02095e-14, Final residual = 7.39673e-17, No Iterations 1
smoothSolver:  Solving for Bz, Initial residual = 0, Final residual = 0, No Iterations 0
DICPCG:  Solving for pB, Initial residual = 6.55473e-10, Final residual = 6.50847e-16, No Iterations 10
magnetic flux divergence error = 9.6867e-19
ExecutionTime = 1.47 s  ClockTime = 2 s

Courant Number mean: 0.0880784 max: 0.133628
deltaT = 5e-05
Time = 0.00974799

PIMPLE: iteration 1
diagonal:  Solving for rho, Initial residual = 0, Final residual = 0, No Iterations 0
smoothSolver:  Solving for Ux, Initial residual = 0.00268631, Final residual = 3.14004e-16, No Iterations 5
smoothSolver:  Solving for Uy, Initial residual = 0.00217318, Final residual = 2.10324e-17, No Iterations 6
smoothSolver:  Solving for Uz, Initial residual = 0, Final residual = 0, No Iterations 0
smoothSolver:  Solving for e, Initial residual = 0.00291591, Final residual = 2.17264e-17, No Iterations 6
DICPCG:  Solving for p, Initial residual = 0.00288022, Final residual = 4.19944e-16, No Iterations 3
diagonal:  Solving for rho, Initial residual = 0, Final residual = 0, No Iterations 0
time step continuity errors : sum local = 4.28947e-16, global = 6.98987e-17, cumulative = 2.90171e-14
DICPCG:  Solving for p, Initial residual = 2.93028e-05, Final residual = 1.13953e-17, No Iterations 3
diagonal:  Solving for rho, Initial residual = 0, Final residual = 0, No Iterations 0
time step continuity errors : sum local = 2.63e-16, global = 4.37495e-17, cumulative = 2.90609e-14
DICPCG:  Solving for p, Initial residual = 2.15634e-06, Final residual = 3.03757e-19, No Iterations 3
diagonal:  Solving for rho, Initial residual = 0, Final residual = 0, No Iterations 0
time step continuity errors : sum local = 2.33834e-16, global = -2.96692e-17, cumulative = 2.90312e-14
smoothSolver:  Solving for Bx, Initial residual = 0.00238559, Final residual = 2.00791e-16, No Iterations 4
smoothSolver:  Solving for By, Initial residual = 3.22106e-05, Final residual = 7.53157e-17, No Iterations 3
smoothSolver:  Solving for Bz, Initial residual = 0, Final residual = 0, No Iterations 0
DICPCG:  Solving for pB, Initial residual = 0.000843018, Final residual = 1.64978e-16, No Iterations 15
magnetic flux divergence error = 1.15963e-18
smoothSolver:  Solving for Bx, Initial residual = 2.07218e-06, Final residual = 2.02944e-16, No Iterations 3
smoothSolver:  Solving for By, Initial residual = 5.80912e-11, Final residual = 6.30055e-17, No Iterations 2
smoothSolver:  Solving for Bz, Initial residual = 0, Final residual = 0, No Iterations 0
DICPCG:  Solving for pB, Initial residual = 7.43152e-07, Final residual = 6.90857e-17, No Iterations 13
magnetic flux divergence error = 9.45355e-19
smoothSolver:  Solving for Bx, Initial residual = 1.79868e-09, Final residual = 1.79504e-16, No Iterations 2
smoothSolver:  Solving for By, Initial residual = 5.04254e-14, Final residual = 6.51322e-17, No Iterations 1
smoothSolver:  Solving for Bz, Initial residual = 0, Final residual = 0, No Iterations 0
DICPCG:  Solving for pB, Initial residual = 6.45063e-10, Final residual = 6.5888e-16, No Iterations 10
magnetic flux divergence error = 1.13021e-18
ExecutionTime = 1.48 s  ClockTime = 2 s

Courant Number mean: 0.0881592 max: 0.133689
deltaT = 5e-05
Time = 0.00979799

PIMPLE: iteration 1
diagonal:  Solving for rho, Initial residual = 0, Final residual = 0, No Iterations 0
smoothSolver:  Solving for Ux, Initial residual = 0.00269824, Final residual = 3.18374e-16, No Iterations 5
smoothSolver:  Solving for Uy, Initial residual = 0.00217555, Final residual = 2.56182e-17, No Iterations 6
smoothSolver:  Solving for Uz, Initial residual = 0, Final residual = 0, No Iterations 0
smoothSolver:  Solving for e, Initial residual = 0.00292415, Final residual = 2.56596e-17, No Iterations 6
DICPCG:  Solving for p, Initial residual = 0.00289119, Final residual = 4.23588e-16, No Iterations 3
diagonal:  Solving for rho, Initial residual = 0, Final residual = 0, No Iterations 0
time step continuity errors : sum local = 4.31621e-16, global = 9.05499e-17, cumulative = 2.91217e-14
DICPCG:  Solving for p, Initial residual = 2.98932e-05, Final residual = 1.13985e-17, No Iterations 3
diagonal:  Solving for rho, Initial residual = 0, Final residual = 0, No Iterations 0
time step continuity errors : sum local = 2.74668e-16, global = -6.23788e-17, cumulative = 2.90594e-14
DICPCG:  Solving for p, Initial residual = 2.15242e-06, Final residual = 2.78256e-19, No Iterations 3
diagonal:  Solving for rho, Initial residual = 0, Final residual = 0, No Iterations 0
time step continuity errors : sum local = 2.75674e-16, global = -1.10672e-17, cumulative = 2.90483e-14
smoothSolver:  Solving for Bx, Initial residual = 0.00237673, Final residual = 9.98074e-16, No Iterations 3
smoothSolver:  Solving for By, Initial residual = 3.21122e-05, Final residual = 8.11194e-17, No Iterations 3
smoothSolver:  Solving for Bz, Initial residual = 0, Final residual = 0, No Iterations 0
DICPCG:  Solving for pB, Initial residual = 0.000835724, Final residual = 1.63673e-16, No Iterations 15
magnetic flux divergence error = 1.14575e-18
smoothSolver:  Solving for Bx, Initial residual = 2.0673e-06, Final residual = 2.03757e-16, No Iterations 3
smoothSolver:  Solving for By, Initial residual = 5.81724e-11, Final residual = 6.92046e-17, No Iterations 2
smoothSolver:  Solving for Bz, Initial residual = 0, Final residual = 0, No Iterations 0
DICPCG:  Solving for pB, Initial residual = 7.29058e-07, Final residual = 6.59493e-17, No Iterations 13
magnetic flux divergence error = 1.08025e-18
smoothSolver:  Solving for Bx, Initial residual = 1.79567e-09, Final residual = 1.46603e-16, No Iterations 2
smoothSolver:  Solving for By, Initial residual = 5.05296e-14, Final residual = 6.83571e-17, No Iterations 1
smoothSolver:  Solving for Bz, Initial residual = 0, Final residual = 0, No Iterations 0
DICPCG:  Solving for pB, Initial residual = 6.33264e-10, Final residual = 6.81661e-16, No Iterations 10
magnetic flux divergence error = 1.11522e-18
ExecutionTime = 1.48 s  ClockTime = 2 s

Courant Number mean: 0.0882402 max: 0.133622
deltaT = 5e-05
Time = 0.00984799

PIMPLE: iteration 1
diagonal:  Solving for rho, Initial residual = 0, Final residual = 0, No Iterations 0
smoothSolver:  Solving for Ux, Initial residual = 0.00270883, Final residual = 3.23596e-16, No Iterations 5
smoothSolver:  Solving for Uy, Initial residual = 0.00216982, Final residual = 1.74461e-17, No Iterations 6
smoothSolver:  Solving for Uz, Initial residual = 0, Final residual = 0, No Iterations 0
smoothSolver:  Solving for e, Initial residual = 0.00293042, Final residual = 2.43646e-17, No Iterations 6
DICPCG:  Solving for p, Initial residual = 0.00290619, Final residual = 4.14251e-16, No Iterations 3
diagonal:  Solving for rho, Initial residual = 0, Final residual = 0, No Iterations 0
time step continuity errors : sum local = 3.74412e-16, global = 9.46096e-17, cumulative = 2.91429e-14
DICPCG:  Solving for p, Initial residual = 3.03187e-05, Final residual = 1.13519e-17, No Iterations 3
diagonal:  Solving for rho, Initial residual = 0, Final residual = 0, No Iterations 0
time step continuity errors : sum local = 2.56654e-16, global = -1.71102e-17, cumulative = 2.91258e-14
DICPCG:  Solving for p, Initial residual = 2.16923e-06, Final residual = 2.73696e-19, No Iterations 3
diagonal:  Solving for rho, Initial residual = 0, Final residual = 0, No Iterations 0
time step continuity errors : sum local = 2.40047e-16, global = 7.54863e-18, cumulative = 2.91334e-14
smoothSolver:  Solving for Bx, Initial residual = 0.00237123, Final residual = 1.67379e-16, No Iterations 4
smoothSolver:  Solving for By, Initial residual = 3.20147e-05, Final residual = 7.62748e-17, No Iterations 3
smoothSolver:  Solving for Bz, Initial residual = 0, Final residual = 0, No Iterations 0
DICPCG:  Solving for pB, Initial residual = 0.000842661, Final residual = 1.24906e-16, No Iterations 15
magnetic flux divergence error = 1.24678e-18
smoothSolver:  Solving for Bx, Initial residual = 2.06311e-06, Final residual = 2.18505e-16, No Iterations 3
smoothSolver:  Solving for By, Initial residual = 5.81225e-11, Final residual = 6.72202e-17, No Iterations 2
smoothSolver:  Solving for Bz, Initial residual = 0, Final residual = 0, No Iterations 0
DICPCG:  Solving for pB, Initial residual = 7.30273e-07, Final residual = 6.46156e-17, No Iterations 13
magnetic flux divergence error = 1.18738e-18
smoothSolver:  Solving for Bx, Initial residual = 1.79297e-09, Final residual = 1.75139e-16, No Iterations 2
smoothSolver:  Solving for By, Initial residual = 5.0516e-14, Final residual = 6.5714e-17, No Iterations 1
smoothSolver:  Solving for Bz, Initial residual = 0, Final residual = 0, No Iterations 0
DICPCG:  Solving for pB, Initial residual = 6.34651e-10, Final residual = 7.12194e-16, No Iterations 10
magnetic flux divergence error = 1.08635e-18
ExecutionTime = 1.49 s  ClockTime = 2 s

Courant Number mean: 0.088321 max: 0.133401
deltaT = 5e-05
Time = 0.00989799

PIMPLE: iteration 1
diagonal:  Solving for rho, Initial residual = 0, Final residual = 0, No Iterations 0
smoothSolver:  Solving for Ux, Initial residual = 0.00271717, Final residual = 3.24271e-16, No Iterations 5
smoothSolver:  Solving for Uy, Initial residual = 0.00215349, Final residual = 2.25863e-17, No Iterations 6
smoothSolver:  Solving for Uz, Initial residual = 0, Final residual = 0, No Iterations 0
smoothSolver:  Solving for e, Initial residual = 0.00293039, Final residual = 2.68859e-17, No Iterations 6
DICPCG:  Solving for p, Initial residual = 0.00291786, Final residual = 4.03904e-16, No Iterations 3
diagonal:  Solving for rho, Initial residual = 0, Final residual = 0, No Iterations 0
time step continuity errors : sum local = 3.82103e-16, global = 1.37436e-16, cumulative = 2.92708e-14
DICPCG:  Solving for p, Initial residual = 3.03072e-05, Final residual = 1.12636e-17, No Iterations 3
diagonal:  Solving for rho, Initial residual = 0, Final residual = 0, No Iterations 0
time step continuity errors : sum local = 2.6279e-16, global = -5.94047e-17, cumulative = 2.92114e-14
DICPCG:  Solving for p, Initial residual = 2.17119e-06, Final residual = 2.75218e-19, No Iterations 3
diagonal:  Solving for rho, Initial residual = 0, Final residual = 0, No Iterations 0
time step continuity errors : sum local = 2.4668e-16, global = 1.81235e-17, cumulative = 2.92295e-14
smoothSolver:  Solving for Bx, Initial residual = 0.00237943, Final residual = 2.10042e-16, No Iterations 4
smoothSolver:  Solving for By, Initial residual = 3.19182e-05, Final residual = 7.60925e-17, No Iterations 3
smoothSolver:  Solving for Bz, Initial residual = 0, Final residual = 0, No Iterations 0
DICPCG:  Solving for pB, Initial residual = 0.00084471, Final residual = 6.75678e-17, No Iterations 15
magnetic flux divergence error = 1.30007e-18
smoothSolver:  Solving for Bx, Initial residual = 2.06172e-06, Final residual = 1.87586e-16, No Iterations 3
smoothSolver:  Solving for By, Initial residual = 5.81905e-11, Final residual = 6.4657e-17, No Iterations 2
smoothSolver:  Solving for Bz, Initial residual = 0, Final residual = 0, No Iterations 0
DICPCG:  Solving for pB, Initial residual = 7.31433e-07, Final residual = 6.82546e-17, No Iterations 13
magnetic flux divergence error = 1.01974e-18
smoothSolver:  Solving for Bx, Initial residual = 1.79248e-09, Final residual = 1.93837e-16, No Iterations 2
smoothSolver:  Solving for By, Initial residual = 5.05927e-14, Final residual = 6.87534e-17, No Iterations 1
smoothSolver:  Solving for Bz, Initial residual = 0, Final residual = 0, No Iterations 0
DICPCG:  Solving for pB, Initial residual = 6.35912e-10, Final residual = 7.57944e-16, No Iterations 10
magnetic flux divergence error = 1.08358e-18
ExecutionTime = 1.5 s  ClockTime = 2 s

Courant Number mean: 0.0884015 max: 0.13318
deltaT = 5e-05
Time = 0.00994799

PIMPLE: iteration 1
diagonal:  Solving for rho, Initial residual = 0, Final residual = 0, No Iterations 0
smoothSolver:  Solving for Ux, Initial residual = 0.00272347, Final residual = 3.16539e-16, No Iterations 5
smoothSolver:  Solving for Uy, Initial residual = 0.00214432, Final residual = 1.88603e-17, No Iterations 6
smoothSolver:  Solving for Uz, Initial residual = 0, Final residual = 0, No Iterations 0
smoothSolver:  Solving for e, Initial residual = 0.0029354, Final residual = 2.98346e-17, No Iterations 6
DICPCG:  Solving for p, Initial residual = 0.00293289, Final residual = 3.89578e-16, No Iterations 3
diagonal:  Solving for rho, Initial residual = 0, Final residual = 0, No Iterations 0
time step continuity errors : sum local = 3.56057e-16, global = 1.41516e-16, cumulative = 2.9371e-14
DICPCG:  Solving for p, Initial residual = 3.03144e-05, Final residual = 1.1587e-17, No Iterations 3
diagonal:  Solving for rho, Initial residual = 0, Final residual = 0, No Iterations 0
time step continuity errors : sum local = 2.14037e-16, global = -4.68364e-17, cumulative = 2.93242e-14
DICPCG:  Solving for p, Initial residual = 2.17879e-06, Final residual = 2.88304e-19, No Iterations 3
diagonal:  Solving for rho, Initial residual = 0, Final residual = 0, No Iterations 0
time step continuity errors : sum local = 2.50801e-16, global = 3.22315e-17, cumulative = 2.93564e-14
smoothSolver:  Solving for Bx, Initial residual = 0.00238563, Final residual = 1.6463e-16, No Iterations 4
smoothSolver:  Solving for By, Initial residual = 3.18225e-05, Final residual = 8.34137e-17, No Iterations 3
smoothSolver:  Solving for Bz, Initial residual = 0, Final residual = 0, No Iterations 0
DICPCG:  Solving for pB, Initial residual = 0.000840923, Final residual = 1.67467e-16, No Iterations 15
magnetic flux divergence error = 1.17961e-18
smoothSolver:  Solving for Bx, Initial residual = 2.06804e-06, Final residual = 1.95145e-16, No Iterations 3
smoothSolver:  Solving for By, Initial residual = 5.84192e-11, Final residual = 7.26995e-17, No Iterations 2
smoothSolver:  Solving for Bz, Initial residual = 0, Final residual = 0, No Iterations 0
DICPCG:  Solving for pB, Initial residual = 7.27932e-07, Final residual = 7.88353e-17, No Iterations 13
magnetic flux divergence error = 1.14686e-18
smoothSolver:  Solving for Bx, Initial residual = 1.79856e-09, Final residual = 1.88289e-16, No Iterations 2
smoothSolver:  Solving for By, Initial residual = 5.08058e-14, Final residual = 7.49241e-17, No Iterations 1
smoothSolver:  Solving for Bz, Initial residual = 0, Final residual = 0, No Iterations 0
DICPCG:  Solving for pB, Initial residual = 6.33074e-10, Final residual = 8.04009e-16, No Iterations 10
magnetic flux divergence error = 1.00864e-18
ExecutionTime = 1.5 s  ClockTime = 2 s

Courant Number mean: 0.0884816 max: 0.133495
deltaT = 5e-05
Time = 0.00999799

PIMPLE: iteration 1
diagonal:  Solving for rho, Initial residual = 0, Final residual = 0, No Iterations 0
smoothSolver:  Solving for Ux, Initial residual = 0.00272688, Final residual = 3.14753e-16, No Iterations 5
smoothSolver:  Solving for Uy, Initial residual = 0.00214788, Final residual = 1.78487e-17, No Iterations 6
smoothSolver:  Solving for Uz, Initial residual = 0, Final residual = 0, No Iterations 0
smoothSolver:  Solving for e, Initial residual = 0.00294788, Final residual = 2.6027e-17, No Iterations 6
DICPCG:  Solving for p, Initial residual = 0.00294548, Final residual = 3.91548e-16, No Iterations 3
diagonal:  Solving for rho, Initial residual = 0, Final residual = 0, No Iterations 0
time step continuity errors : sum local = 3.72312e-16, global = 6.80136e-17, cumulative = 2.94244e-14
DICPCG:  Solving for p, Initial residual = 3.00801e-05, Final residual = 1.18376e-17, No Iterations 3
diagonal:  Solving for rho, Initial residual = 0, Final residual = 0, No Iterations 0
time step continuity errors : sum local = 2.45353e-16, global = 3.57701e-17, cumulative = 2.94602e-14
DICPCG:  Solving for p, Initial residual = 2.244e-06, Final residual = 3.33882e-19, No Iterations 3
diagonal:  Solving for rho, Initial residual = 0, Final residual = 0, No Iterations 0
time step continuity errors : sum local = 2.44849e-16, global = 4.33272e-17, cumulative = 2.95035e-14
smoothSolver:  Solving for Bx, Initial residual = 0.0023897, Final residual = 9.73636e-16, No Iterations 3
smoothSolver:  Solving for By, Initial residual = 3.17274e-05, Final residual = 7.98145e-17, No Iterations 3
smoothSolver:  Solving for Bz, Initial residual = 0, Final residual = 0, No Iterations 0
DICPCG:  Solving for pB, Initial residual = 0.000832901, Final residual = 2.0572e-16, No Iterations 15
magnetic flux divergence error = 1.30174e-18
smoothSolver:  Solving for Bx, Initial residual = 2.07299e-06, Final residual = 1.94155e-16, No Iterations 3
smoothSolver:  Solving for By, Initial residual = 5.8599e-11, Final residual = 6.95073e-17, No Iterations 2
smoothSolver:  Solving for Bz, Initial residual = 0, Final residual = 0, No Iterations 0
DICPCG:  Solving for pB, Initial residual = 7.19876e-07, Final residual = 9.31674e-17, No Iterations 13
magnetic flux divergence error = 1.4122e-18
smoothSolver:  Solving for Bx, Initial residual = 1.80339e-09, Final residual = 2.24732e-16, No Iterations 2
smoothSolver:  Solving for By, Initial residual = 5.09779e-14, Final residual = 7.0381e-17, No Iterations 1
smoothSolver:  Solving for Bz, Initial residual = 0, Final residual = 0, No Iterations 0
DICPCG:  Solving for pB, Initial residual = 6.26253e-10, Final residual = 8.51413e-16, No Iterations 10
magnetic flux divergence error = 1.16684e-18
ExecutionTime = 1.51 s  ClockTime = 2 s

    functionObjects::components components(U) writing field: Ux
    functionObjects::components components(U) writing field: Uy
    functionObjects::components components(U) writing field: Uz
End

