/*---------------------------------------------------------------------------*\
| =========                 |                                                 |
| \\      /  F ield         | OpenFOAM: The Open Source CFD Toolbox           |
|  \\    /   O peration     | Version:  2012                                  |
|   \\  /    A nd           | Website:  www.openfoam.com                      |
|    \\/     M anipulation  |                                                 |
\*---------------------------------------------------------------------------*/
Build  : _269d0ffd5c-20210619 OPENFOAM=2012 patch=210618
Arch   : "LSB;label=32;scalar=64"
Exec   : mhdPimpleFoam
Date   : Apr 04 2022
Time   : 15:24:13
Host   : gabrielmarconcini-Lenovo-G50-80
PID    : 59872
I/O    : uncollated
Case   : /home/gabrielmarconcini/Documentos/TCC/PTCC/ShockTube/sim/NewSolver/sim5/ShockTube5_100
nProcs : 1
trapFpe: Floating point exception trapping enabled (FOAM_SIGFPE).
fileModificationChecking : Monitoring run-time modified files using timeStampMaster (fileModificationSkew 5, maxFileModificationPolls 20)
allowSystemOperations : Allowing user-supplied system call operations

// * * * * * * * * * * * * * * * * * * * * * * * * * * * * * * * * * * * * * //
Create time

Create mesh for time = 0


PIMPLE: no residual control data found. Calculations will employ 2 corrector loops

Reading thermophysical properties

Selecting thermodynamics package 
{
    type            hePsiThermo;
    mixture         pureMixture;
    transport       const;
    thermo          eConst;
    equationOfState perfectGas;
    specie          specie;
    energy          sensibleInternalEnergy;
}

Reading field U

Reading/calculating face flux field phi

Creating turbulence model

Selecting turbulence model type laminar
Selecting laminar stress model Stokes
Creating field dpdt

Creating field kinetic energy K

No MRF models present

No finite volume options present
Courant Number mean: 0 max: 0

Starting time loop

Courant Number mean: 0 max: 0
Time = 1e-05

PIMPLE: iteration 1
diagonal:  Solving for rho, Initial residual = 0, Final residual = 0, No Iterations 0
smoothSolver:  Solving for Ux, Initial residual = 1, Final residual = 0, No Iterations 1
smoothSolver:  Solving for e, Initial residual = 5.71873e-17, Final residual = 5.71873e-17, No Iterations 0
smoothSolver:  Solving for p, Initial residual = 1.78207e-05, Final residual = 1.74233e-17, No Iterations 2
diagonal:  Solving for rho, Initial residual = 0, Final residual = 0, No Iterations 0
time step continuity errors : sum local = 1.22669e-16, global = 9.89265e-18, cumulative = 9.89265e-18
smoothSolver:  Solving for p, Initial residual = 5.60352e-08, Final residual = 7.0029e-18, No Iterations 2
diagonal:  Solving for rho, Initial residual = 0, Final residual = 0, No Iterations 0
time step continuity errors : sum local = 1.014e-16, global = -5.44096e-18, cumulative = 4.45169e-18
PIMPLE: iteration 2
smoothSolver:  Solving for Ux, Initial residual = 0.000461011, Final residual = 4.879e-18, No Iterations 1
smoothSolver:  Solving for e, Initial residual = 0.00013049, Final residual = 4.98705e-17, No Iterations 1
smoothSolver:  Solving for p, Initial residual = 1.63332e-05, Final residual = 1.94016e-17, No Iterations 2
diagonal:  Solving for rho, Initial residual = 0, Final residual = 0, No Iterations 0
time step continuity errors : sum local = 1.21927e-16, global = 2.05272e-17, cumulative = 2.49789e-17
smoothSolver:  Solving for p, Initial residual = 6.59189e-08, Final residual = 4.95471e-18, No Iterations 2
diagonal:  Solving for rho, Initial residual = 0, Final residual = 0, No Iterations 0
time step continuity errors : sum local = 9.24963e-17, global = -9.89265e-19, cumulative = 2.39897e-17
ExecutionTime = 0.04 s  ClockTime = 0 s

Courant Number mean: 4.03834e-05 max: 0.00357958
Time = 2e-05

PIMPLE: iteration 1
diagonal:  Solving for rho, Initial residual = 0, Final residual = 0, No Iterations 0
smoothSolver:  Solving for Ux, Initial residual = 0.127385, Final residual = 1.09165e-17, No Iterations 1
smoothSolver:  Solving for e, Initial residual = 8.08305e-05, Final residual = 5.03483e-17, No Iterations 2
smoothSolver:  Solving for p, Initial residual = 5.01719e-05, Final residual = 4.49276e-17, No Iterations 2
diagonal:  Solving for rho, Initial residual = 0, Final residual = 0, No Iterations 0
time step continuity errors : sum local = 2.13187e-16, global = 2.37424e-17, cumulative = 4.7732e-17
smoothSolver:  Solving for p, Initial residual = 1.17562e-07, Final residual = 5.69336e-18, No Iterations 2
diagonal:  Solving for rho, Initial residual = 0, Final residual = 0, No Iterations 0
time step continuity errors : sum local = 9.6206e-17, global = -8.65607e-18, cumulative = 3.9076e-17
PIMPLE: iteration 2
smoothSolver:  Solving for Ux, Initial residual = 0.000831427, Final residual = 1.71043e-17, No Iterations 1
smoothSolver:  Solving for e, Initial residual = 0.000193681, Final residual = 6.93241e-17, No Iterations 2
smoothSolver:  Solving for p, Initial residual = 2.38733e-05, Final residual = 2.30446e-17, No Iterations 2
diagonal:  Solving for rho, Initial residual = 0, Final residual = 0, No Iterations 0
time step continuity errors : sum local = 1.70895e-16, global = 5.41622e-17, cumulative = 9.32382e-17
smoothSolver:  Solving for p, Initial residual = 1.23652e-07, Final residual = 6.70176e-18, No Iterations 2
diagonal:  Solving for rho, Initial residual = 0, Final residual = 0, No Iterations 0
time step continuity errors : sum local = 9.10124e-17, global = 1.73121e-17, cumulative = 1.1055e-16
ExecutionTime = 0.04 s  ClockTime = 0 s

Courant Number mean: 0.000119102 max: 0.00963345
Time = 3e-05

PIMPLE: iteration 1
diagonal:  Solving for rho, Initial residual = 0, Final residual = 0, No Iterations 0
smoothSolver:  Solving for Ux, Initial residual = 0.0679661, Final residual = 9.47744e-18, No Iterations 1
smoothSolver:  Solving for e, Initial residual = 0.000198322, Final residual = 4.75869e-17, No Iterations 2
smoothSolver:  Solving for p, Initial residual = 9.45564e-05, Final residual = 8.38698e-17, No Iterations 2
diagonal:  Solving for rho, Initial residual = 0, Final residual = 0, No Iterations 0
time step continuity errors : sum local = 2.8293e-16, global = -1.4839e-18, cumulative = 1.09066e-16
smoothSolver:  Solving for p, Initial residual = 2.98342e-07, Final residual = 5.88137e-18, No Iterations 2
diagonal:  Solving for rho, Initial residual = 0, Final residual = 0, No Iterations 0
time step continuity errors : sum local = 9.02704e-17, global = 6.1829e-18, cumulative = 1.15249e-16
PIMPLE: iteration 2
smoothSolver:  Solving for Ux, Initial residual = 0.000834827, Final residual = 8.51073e-18, No Iterations 1
smoothSolver:  Solving for e, Initial residual = 0.000194983, Final residual = 5.5073e-16, No Iterations 2
smoothSolver:  Solving for p, Initial residual = 2.35883e-05, Final residual = 2.13294e-17, No Iterations 2
diagonal:  Solving for rho, Initial residual = 0, Final residual = 0, No Iterations 0
time step continuity errors : sum local = 1.6867e-16, global = 6.77646e-17, cumulative = 1.83014e-16
smoothSolver:  Solving for p, Initial residual = 1.59537e-07, Final residual = 5.38236e-18, No Iterations 2
diagonal:  Solving for rho, Initial residual = 0, Final residual = 0, No Iterations 0
time step continuity errors : sum local = 8.97758e-17, global = 2.22585e-18, cumulative = 1.8524e-16
ExecutionTime = 0.04 s  ClockTime = 0 s

Courant Number mean: 0.000195395 max: 0.01545
Time = 4e-05

PIMPLE: iteration 1
diagonal:  Solving for rho, Initial residual = 0, Final residual = 0, No Iterations 0
smoothSolver:  Solving for Ux, Initial residual = 0.0462275, Final residual = 8.00137e-18, No Iterations 1
smoothSolver:  Solving for e, Initial residual = 0.000346157, Final residual = 6.98539e-16, No Iterations 2
smoothSolver:  Solving for p, Initial residual = 0.000137364, Final residual = 1.16556e-16, No Iterations 2
diagonal:  Solving for rho, Initial residual = 0, Final residual = 0, No Iterations 0
time step continuity errors : sum local = 3.4006e-16, global = 1.11292e-17, cumulative = 1.96369e-16
smoothSolver:  Solving for p, Initial residual = 5.24135e-07, Final residual = 8.1885e-18, No Iterations 2
diagonal:  Solving for rho, Initial residual = 0, Final residual = 0, No Iterations 0
time step continuity errors : sum local = 9.05177e-17, global = -9.89265e-19, cumulative = 1.9538e-16
PIMPLE: iteration 2
smoothSolver:  Solving for Ux, Initial residual = 0.000714548, Final residual = 3.38326e-18, No Iterations 1
smoothSolver:  Solving for e, Initial residual = 0.000176143, Final residual = 3.83654e-17, No Iterations 3
smoothSolver:  Solving for p, Initial residual = 2.08752e-05, Final residual = 2.19791e-17, No Iterations 2
diagonal:  Solving for rho, Initial residual = 0, Final residual = 0, No Iterations 0
time step continuity errors : sum local = 1.5853e-16, global = 6.40549e-17, cumulative = 2.59435e-16
smoothSolver:  Solving for p, Initial residual = 1.72688e-07, Final residual = 5.46881e-18, No Iterations 2
diagonal:  Solving for rho, Initial residual = 0, Final residual = 0, No Iterations 0
time step continuity errors : sum local = 9.49694e-17, global = 3.95706e-18, cumulative = 2.63392e-16
ExecutionTime = 0.05 s  ClockTime = 0 s

Courant Number mean: 0.000254778 max: 0.0201076
Time = 5e-05

PIMPLE: iteration 1
diagonal:  Solving for rho, Initial residual = 0, Final residual = 0, No Iterations 0
smoothSolver:  Solving for Ux, Initial residual = 0.0348888, Final residual = 1.53621e-17, No Iterations 1
smoothSolver:  Solving for e, Initial residual = 0.000478906, Final residual = 3.7858e-17, No Iterations 3
smoothSolver:  Solving for p, Initial residual = 0.000175906, Final residual = 1.49781e-16, No Iterations 2
diagonal:  Solving for rho, Initial residual = 0, Final residual = 0, No Iterations 0
time step continuity errors : sum local = 3.90512e-16, global = -1.75594e-17, cumulative = 2.45832e-16
smoothSolver:  Solving for p, Initial residual = 7.47557e-07, Final residual = 8.9013e-18, No Iterations 2
diagonal:  Solving for rho, Initial residual = 0, Final residual = 0, No Iterations 0
time step continuity errors : sum local = 9.02704e-17, global = 9.1507e-18, cumulative = 2.54983e-16
PIMPLE: iteration 2
smoothSolver:  Solving for Ux, Initial residual = 0.000696321, Final residual = 1.26072e-17, No Iterations 1
smoothSolver:  Solving for e, Initial residual = 0.000153193, Final residual = 4.26753e-17, No Iterations 3
smoothSolver:  Solving for p, Initial residual = 1.78475e-05, Final residual = 1.9052e-17, No Iterations 2
diagonal:  Solving for rho, Initial residual = 0, Final residual = 0, No Iterations 0
time step continuity errors : sum local = 1.66196e-16, global = 7.07324e-17, cumulative = 3.25715e-16
smoothSolver:  Solving for p, Initial residual = 1.62914e-07, Final residual = 8.59618e-18, No Iterations 2
diagonal:  Solving for rho, Initial residual = 0, Final residual = 0, No Iterations 0
time step continuity errors : sum local = 9.37328e-17, global = 2.99253e-17, cumulative = 3.55641e-16
ExecutionTime = 0.05 s  ClockTime = 0 s

Courant Number mean: 0.00031239 max: 0.0242164
Time = 6e-05

PIMPLE: iteration 1
diagonal:  Solving for rho, Initial residual = 0, Final residual = 0, No Iterations 0
smoothSolver:  Solving for Ux, Initial residual = 0.0279574, Final residual = 5.09214e-18, No Iterations 1
smoothSolver:  Solving for e, Initial residual = 0.000593689, Final residual = 3.76358e-17, No Iterations 3
smoothSolver:  Solving for p, Initial residual = 0.000209988, Final residual = 1.77798e-16, No Iterations 2
diagonal:  Solving for rho, Initial residual = 0, Final residual = 0, No Iterations 0
time step continuity errors : sum local = 4.52836e-16, global = -2.79467e-17, cumulative = 3.27694e-16
smoothSolver:  Solving for p, Initial residual = 9.46587e-07, Final residual = 6.70744e-18, No Iterations 2
diagonal:  Solving for rho, Initial residual = 0, Final residual = 0, No Iterations 0
time step continuity errors : sum local = 9.27436e-17, global = 1.26131e-17, cumulative = 3.40307e-16
PIMPLE: iteration 2
smoothSolver:  Solving for Ux, Initial residual = 0.000603033, Final residual = 7.13788e-18, No Iterations 1
smoothSolver:  Solving for e, Initial residual = 0.000127505, Final residual = 4.5102e-17, No Iterations 3
smoothSolver:  Solving for p, Initial residual = 1.45928e-05, Final residual = 1.79863e-17, No Iterations 2
diagonal:  Solving for rho, Initial residual = 0, Final residual = 0, No Iterations 0
time step continuity errors : sum local = 1.56304e-16, global = 6.43022e-17, cumulative = 4.04609e-16
smoothSolver:  Solving for p, Initial residual = 1.47995e-07, Final residual = 8.40811e-18, No Iterations 2
diagonal:  Solving for rho, Initial residual = 0, Final residual = 0, No Iterations 0
time step continuity errors : sum local = 1.02142e-16, global = 7.17217e-18, cumulative = 4.11781e-16
ExecutionTime = 0.05 s  ClockTime = 0 s

Courant Number mean: 0.000358255 max: 0.0273446
Time = 7e-05

PIMPLE: iteration 1
diagonal:  Solving for rho, Initial residual = 0, Final residual = 0, No Iterations 0
smoothSolver:  Solving for Ux, Initial residual = 0.0232812, Final residual = 1.08593e-17, No Iterations 1
smoothSolver:  Solving for e, Initial residual = 0.000688035, Final residual = 5.23385e-17, No Iterations 3
smoothSolver:  Solving for p, Initial residual = 0.00023948, Final residual = 2.04444e-16, No Iterations 2
diagonal:  Solving for rho, Initial residual = 0, Final residual = 0, No Iterations 0
time step continuity errors : sum local = 5.0403e-16, global = -3.80867e-17, cumulative = 3.73695e-16
smoothSolver:  Solving for p, Initial residual = 1.1075e-06, Final residual = 8.74238e-18, No Iterations 2
diagonal:  Solving for rho, Initial residual = 0, Final residual = 0, No Iterations 0
time step continuity errors : sum local = 9.57114e-17, global = 7.17217e-18, cumulative = 3.80867e-16
PIMPLE: iteration 2
smoothSolver:  Solving for Ux, Initial residual = 0.000540702, Final residual = 5.47336e-18, No Iterations 1
smoothSolver:  Solving for e, Initial residual = 0.000101436, Final residual = 6.88357e-17, No Iterations 3
smoothSolver:  Solving for p, Initial residual = 1.14509e-05, Final residual = 1.4907e-17, No Iterations 2
diagonal:  Solving for rho, Initial residual = 0, Final residual = 0, No Iterations 0
time step continuity errors : sum local = 1.57293e-16, global = 7.02378e-17, cumulative = 4.51105e-16
smoothSolver:  Solving for p, Initial residual = 1.23899e-07, Final residual = 6.85282e-18, No Iterations 2
diagonal:  Solving for rho, Initial residual = 0, Final residual = 0, No Iterations 0
time step continuity errors : sum local = 1.00163e-16, global = 2.8936e-17, cumulative = 4.80041e-16
ExecutionTime = 0.05 s  ClockTime = 0 s

Courant Number mean: 0.000397336 max: 0.029751
Time = 8e-05

PIMPLE: iteration 1
diagonal:  Solving for rho, Initial residual = 0, Final residual = 0, No Iterations 0
smoothSolver:  Solving for Ux, Initial residual = 0.0199432, Final residual = 9.45165e-18, No Iterations 1
smoothSolver:  Solving for e, Initial residual = 0.000762212, Final residual = 1.37159e-16, No Iterations 3
smoothSolver:  Solving for p, Initial residual = 0.000264767, Final residual = 2.21267e-16, No Iterations 2
diagonal:  Solving for rho, Initial residual = 0, Final residual = 0, No Iterations 0
time step continuity errors : sum local = 5.33956e-16, global = -3.28931e-17, cumulative = 4.47148e-16
smoothSolver:  Solving for p, Initial residual = 1.22625e-06, Final residual = 9.3653e-18, No Iterations 2
diagonal:  Solving for rho, Initial residual = 0, Final residual = 0, No Iterations 0
time step continuity errors : sum local = 9.47221e-17, global = 2.25058e-17, cumulative = 4.69653e-16
PIMPLE: iteration 2
smoothSolver:  Solving for Ux, Initial residual = 0.000472816, Final residual = 2.17401e-18, No Iterations 1
smoothSolver:  Solving for e, Initial residual = 7.48355e-05, Final residual = 1.20305e-16, No Iterations 3
smoothSolver:  Solving for p, Initial residual = 8.35254e-06, Final residual = 1.301e-17, No Iterations 2
diagonal:  Solving for rho, Initial residual = 0, Final residual = 0, No Iterations 0
time step continuity errors : sum local = 1.62981e-16, global = 7.83992e-17, cumulative = 5.48053e-16
smoothSolver:  Solving for p, Initial residual = 9.81565e-08, Final residual = 8.11503e-18, No Iterations 2
diagonal:  Solving for rho, Initial residual = 0, Final residual = 0, No Iterations 0
time step continuity errors : sum local = 1.01647e-16, global = 2.10219e-17, cumulative = 5.69075e-16
ExecutionTime = 0.05 s  ClockTime = 0 s

Courant Number mean: 0.000429244 max: 0.0314726
Time = 9e-05

PIMPLE: iteration 1
diagonal:  Solving for rho, Initial residual = 0, Final residual = 0, No Iterations 0
smoothSolver:  Solving for Ux, Initial residual = 0.0174521, Final residual = 8.72534e-18, No Iterations 1
smoothSolver:  Solving for e, Initial residual = 0.000816433, Final residual = 4.26749e-16, No Iterations 3
smoothSolver:  Solving for p, Initial residual = 0.000286325, Final residual = 2.39597e-16, No Iterations 2
diagonal:  Solving for rho, Initial residual = 0, Final residual = 0, No Iterations 0
time step continuity errors : sum local = 5.5473e-16, global = -4.17964e-17, cumulative = 5.27278e-16
smoothSolver:  Solving for p, Initial residual = 1.45977e-06, Final residual = 9.56354e-18, No Iterations 2
diagonal:  Solving for rho, Initial residual = 0, Final residual = 0, No Iterations 0
time step continuity errors : sum local = 1.00163e-16, global = 1.75594e-17, cumulative = 5.44838e-16
PIMPLE: iteration 2
smoothSolver:  Solving for Ux, Initial residual = 0.000413668, Final residual = 5.24922e-18, No Iterations 1
smoothSolver:  Solving for e, Initial residual = 6.52518e-05, Final residual = 1.45945e-16, No Iterations 3
smoothSolver:  Solving for p, Initial residual = 7.27144e-06, Final residual = 1.10224e-17, No Iterations 2
diagonal:  Solving for rho, Initial residual = 0, Final residual = 0, No Iterations 0
time step continuity errors : sum local = 1.60756e-16, global = 8.6066e-17, cumulative = 6.30904e-16
smoothSolver:  Solving for p, Initial residual = 8.20968e-08, Final residual = 9.74265e-18, No Iterations 2
diagonal:  Solving for rho, Initial residual = 0, Final residual = 0, No Iterations 0
time step continuity errors : sum local = 1.00905e-16, global = 2.47316e-18, cumulative = 6.33377e-16
ExecutionTime = 0.06 s  ClockTime = 0 s

Courant Number mean: 0.000455526 max: 0.0326383
Time = 0.0001

PIMPLE: iteration 1
diagonal:  Solving for rho, Initial residual = 0, Final residual = 0, No Iterations 0
smoothSolver:  Solving for Ux, Initial residual = 0.015536, Final residual = 1.26695e-17, No Iterations 1
smoothSolver:  Solving for e, Initial residual = 0.000871961, Final residual = 6.77604e-16, No Iterations 3
smoothSolver:  Solving for p, Initial residual = 0.000306183, Final residual = 2.55286e-16, No Iterations 2
diagonal:  Solving for rho, Initial residual = 0, Final residual = 0, No Iterations 0
time step continuity errors : sum local = 5.92817e-16, global = -6.35603e-17, cumulative = 5.69817e-16
smoothSolver:  Solving for p, Initial residual = 1.69613e-06, Final residual = 9.27752e-18, No Iterations 2
diagonal:  Solving for rho, Initial residual = 0, Final residual = 0, No Iterations 0
time step continuity errors : sum local = 1.01647e-16, global = -2.72048e-18, cumulative = 5.67096e-16
PIMPLE: iteration 2
smoothSolver:  Solving for Ux, Initial residual = 0.000361204, Final residual = 2.65702e-18, No Iterations 1
smoothSolver:  Solving for e, Initial residual = 5.49116e-05, Final residual = 1.40188e-16, No Iterations 3
smoothSolver:  Solving for p, Initial residual = 6.08416e-06, Final residual = 1.19924e-17, No Iterations 2
diagonal:  Solving for rho, Initial residual = 0, Final residual = 0, No Iterations 0
time step continuity errors : sum local = 1.59519e-16, global = 6.00978e-17, cumulative = 6.27194e-16
smoothSolver:  Solving for p, Initial residual = 6.1315e-08, Final residual = 8.68279e-18, No Iterations 2
diagonal:  Solving for rho, Initial residual = 0, Final residual = 0, No Iterations 0
time step continuity errors : sum local = 9.76899e-17, global = 8.16143e-18, cumulative = 6.35355e-16
ExecutionTime = 0.06 s  ClockTime = 0 s

Courant Number mean: 0.000477291 max: 0.033355
Time = 0.00011

PIMPLE: iteration 1
diagonal:  Solving for rho, Initial residual = 0, Final residual = 0, No Iterations 0
smoothSolver:  Solving for Ux, Initial residual = 0.0140261, Final residual = 7.12796e-18, No Iterations 1
smoothSolver:  Solving for e, Initial residual = 0.000922621, Final residual = 8.83071e-16, No Iterations 3
smoothSolver:  Solving for p, Initial residual = 0.000323724, Final residual = 2.70965e-16, No Iterations 2
diagonal:  Solving for rho, Initial residual = 0, Final residual = 0, No Iterations 0
time step continuity errors : sum local = 6.12602e-16, global = -5.21837e-17, cumulative = 5.83172e-16
smoothSolver:  Solving for p, Initial residual = 1.92703e-06, Final residual = 8.74725e-18, No Iterations 2
diagonal:  Solving for rho, Initial residual = 0, Final residual = 0, No Iterations 0
time step continuity errors : sum local = 1.1055e-16, global = 2.05272e-17, cumulative = 6.03699e-16
PIMPLE: iteration 2
smoothSolver:  Solving for Ux, Initial residual = 0.000315921, Final residual = 4.17052e-18, No Iterations 1
smoothSolver:  Solving for e, Initial residual = 3.72101e-05, Final residual = 4.14214e-17, No Iterations 2
smoothSolver:  Solving for p, Initial residual = 3.9327e-06, Final residual = 8.68662e-18, No Iterations 2
diagonal:  Solving for rho, Initial residual = 0, Final residual = 0, No Iterations 0
time step continuity errors : sum local = 1.59519e-16, global = 6.75173e-17, cumulative = 6.71216e-16
smoothSolver:  Solving for p, Initial residual = 4.22936e-08, Final residual = 8.60214e-18, No Iterations 2
diagonal:  Solving for rho, Initial residual = 0, Final residual = 0, No Iterations 0
time step continuity errors : sum local = 1.01894e-16, global = 3.46243e-18, cumulative = 6.74679e-16
ExecutionTime = 0.06 s  ClockTime = 0 s

Courant Number mean: 0.000495617 max: 0.0337216
Time = 0.00012

PIMPLE: iteration 1
diagonal:  Solving for rho, Initial residual = 0, Final residual = 0, No Iterations 0
smoothSolver:  Solving for Ux, Initial residual = 0.0128129, Final residual = 1.02217e-17, No Iterations 1
smoothSolver:  Solving for e, Initial residual = 0.000956754, Final residual = 1.13611e-16, No Iterations 2
smoothSolver:  Solving for p, Initial residual = 0.000335914, Final residual = 2.84479e-16, No Iterations 2
diagonal:  Solving for rho, Initial residual = 0, Final residual = 0, No Iterations 0
time step continuity errors : sum local = 6.40549e-16, global = -6.08398e-17, cumulative = 6.13839e-16
smoothSolver:  Solving for p, Initial residual = 2.12905e-06, Final residual = 1.09905e-17, No Iterations 2
diagonal:  Solving for rho, Initial residual = 0, Final residual = 0, No Iterations 0
time step continuity errors : sum local = 9.81845e-17, global = -2.72048e-18, cumulative = 6.11118e-16
PIMPLE: iteration 2
smoothSolver:  Solving for Ux, Initial residual = 0.000277317, Final residual = 9.56475e-18, No Iterations 1
smoothSolver:  Solving for e, Initial residual = 3.19307e-05, Final residual = 4.68386e-17, No Iterations 2
smoothSolver:  Solving for p, Initial residual = 3.76406e-06, Final residual = 8.31902e-18, No Iterations 2
diagonal:  Solving for rho, Initial residual = 0, Final residual = 0, No Iterations 0
time step continuity errors : sum local = 1.5482e-16, global = 6.52915e-17, cumulative = 6.7641e-16
smoothSolver:  Solving for p, Initial residual = 4.08941e-08, Final residual = 7.95834e-18, No Iterations 2
diagonal:  Solving for rho, Initial residual = 0, Final residual = 0, No Iterations 0
time step continuity errors : sum local = 9.00231e-17, global = 3.46243e-18, cumulative = 6.79872e-16
ExecutionTime = 0.06 s  ClockTime = 0 s

Courant Number mean: 0.00051141 max: 0.033822
Time = 0.00013

PIMPLE: iteration 1
diagonal:  Solving for rho, Initial residual = 0, Final residual = 0, No Iterations 0
smoothSolver:  Solving for Ux, Initial residual = 0.0118161, Final residual = 7.77077e-18, No Iterations 1
smoothSolver:  Solving for e, Initial residual = 0.000963667, Final residual = 1.76011e-16, No Iterations 2
smoothSolver:  Solving for p, Initial residual = 0.000346014, Final residual = 2.90997e-16, No Iterations 2
diagonal:  Solving for rho, Initial residual = 0, Final residual = 0, No Iterations 0
time step continuity errors : sum local = 6.4599e-16, global = -4.60008e-17, cumulative = 6.33871e-16
smoothSolver:  Solving for p, Initial residual = 2.32034e-06, Final residual = 1.00593e-17, No Iterations 2
diagonal:  Solving for rho, Initial residual = 0, Final residual = 0, No Iterations 0
time step continuity errors : sum local = 1.014e-16, global = 2.76994e-17, cumulative = 6.61571e-16
PIMPLE: iteration 2
smoothSolver:  Solving for Ux, Initial residual = 0.000244664, Final residual = 1.31991e-17, No Iterations 1
smoothSolver:  Solving for e, Initial residual = 3.18798e-05, Final residual = 4.53462e-17, No Iterations 2
smoothSolver:  Solving for p, Initial residual = 3.76156e-06, Final residual = 9.45234e-18, No Iterations 2
diagonal:  Solving for rho, Initial residual = 0, Final residual = 0, No Iterations 0
time step continuity errors : sum local = 1.51358e-16, global = 5.58935e-17, cumulative = 7.17464e-16
smoothSolver:  Solving for p, Initial residual = 3.15341e-08, Final residual = 9.29911e-18, No Iterations 2
diagonal:  Solving for rho, Initial residual = 0, Final residual = 0, No Iterations 0
time step continuity errors : sum local = 1.13765e-16, global = -4.94632e-19, cumulative = 7.1697e-16
ExecutionTime = 0.07 s  ClockTime = 0 s

Courant Number mean: 0.000525422 max: 0.0337251
Time = 0.00014

PIMPLE: iteration 1
diagonal:  Solving for rho, Initial residual = 0, Final residual = 0, No Iterations 0
smoothSolver:  Solving for Ux, Initial residual = 0.0109726, Final residual = 1.15678e-17, No Iterations 1
smoothSolver:  Solving for e, Initial residual = 0.000960951, Final residual = 2.59807e-16, No Iterations 2
smoothSolver:  Solving for p, Initial residual = 0.00035405, Final residual = 2.94587e-16, No Iterations 2
diagonal:  Solving for rho, Initial residual = 0, Final residual = 0, No Iterations 0
time step continuity errors : sum local = 6.53162e-16, global = -4.3775e-17, cumulative = 6.73195e-16
smoothSolver:  Solving for p, Initial residual = 2.49958e-06, Final residual = 1.04341e-17, No Iterations 2
diagonal:  Solving for rho, Initial residual = 0, Final residual = 0, No Iterations 0
time step continuity errors : sum local = 1.06346e-16, global = -1.08819e-17, cumulative = 6.62313e-16
PIMPLE: iteration 2
smoothSolver:  Solving for Ux, Initial residual = 0.000216428, Final residual = 1.29572e-17, No Iterations 1
smoothSolver:  Solving for e, Initial residual = 3.24851e-05, Final residual = 5.69675e-17, No Iterations 2
smoothSolver:  Solving for p, Initial residual = 4.14403e-06, Final residual = 1.14711e-17, No Iterations 2
diagonal:  Solving for rho, Initial residual = 0, Final residual = 0, No Iterations 0
time step continuity errors : sum local = 1.52841e-16, global = 5.49042e-17, cumulative = 7.17217e-16
smoothSolver:  Solving for p, Initial residual = 2.52524e-08, Final residual = 8.13633e-18, No Iterations 2
diagonal:  Solving for rho, Initial residual = 0, Final residual = 0, No Iterations 0
time step continuity errors : sum local = 1.08819e-16, global = -3.46243e-18, cumulative = 7.13755e-16
ExecutionTime = 0.07 s  ClockTime = 0 s

Courant Number mean: 0.000538256 max: 0.0334858
Time = 0.00015

PIMPLE: iteration 1
diagonal:  Solving for rho, Initial residual = 0, Final residual = 0, No Iterations 0
smoothSolver:  Solving for Ux, Initial residual = 0.010243, Final residual = 9.5636e-18, No Iterations 1
smoothSolver:  Solving for e, Initial residual = 0.000950295, Final residual = 4.07325e-16, No Iterations 2
smoothSolver:  Solving for p, Initial residual = 0.000360312, Final residual = 2.97439e-16, No Iterations 2
diagonal:  Solving for rho, Initial residual = 0, Final residual = 0, No Iterations 0
time step continuity errors : sum local = 6.48463e-16, global = -3.31404e-17, cumulative = 6.80614e-16
smoothSolver:  Solving for p, Initial residual = 2.66771e-06, Final residual = 8.36998e-18, No Iterations 2
diagonal:  Solving for rho, Initial residual = 0, Final residual = 0, No Iterations 0
time step continuity errors : sum local = 1.1154e-16, global = 2.84414e-17, cumulative = 7.09056e-16
PIMPLE: iteration 2
smoothSolver:  Solving for Ux, Initial residual = 0.000192735, Final residual = 9.34389e-18, No Iterations 1
smoothSolver:  Solving for e, Initial residual = 4.10888e-05, Final residual = 6.79038e-17, No Iterations 2
smoothSolver:  Solving for p, Initial residual = 5.06179e-06, Final residual = 1.2047e-17, No Iterations 2
diagonal:  Solving for rho, Initial residual = 0, Final residual = 0, No Iterations 0
time step continuity errors : sum local = 1.49626e-16, global = 6.05925e-17, cumulative = 7.69648e-16
smoothSolver:  Solving for p, Initial residual = 2.11373e-08, Final residual = 1.2356e-17, No Iterations 2
diagonal:  Solving for rho, Initial residual = 0, Final residual = 0, No Iterations 0
time step continuity errors : sum local = 9.94211e-17, global = 3.21511e-17, cumulative = 8.01799e-16
ExecutionTime = 0.07 s  ClockTime = 0 s

Courant Number mean: 0.00055039 max: 0.033147
Time = 0.00016

PIMPLE: iteration 1
diagonal:  Solving for rho, Initial residual = 0, Final residual = 0, No Iterations 0
smoothSolver:  Solving for Ux, Initial residual = 0.00961845, Final residual = 1.74625e-17, No Iterations 1
smoothSolver:  Solving for e, Initial residual = 0.00093321, Final residual = 6.27753e-16, No Iterations 2
smoothSolver:  Solving for p, Initial residual = 0.000365054, Final residual = 3.02802e-16, No Iterations 2
diagonal:  Solving for rho, Initial residual = 0, Final residual = 0, No Iterations 0
time step continuity errors : sum local = 6.67012e-16, global = -4.3775e-17, cumulative = 7.58024e-16
smoothSolver:  Solving for p, Initial residual = 2.8259e-06, Final residual = 1.06879e-17, No Iterations 2
diagonal:  Solving for rho, Initial residual = 0, Final residual = 0, No Iterations 0
time step continuity errors : sum local = 9.69479e-17, global = 1.68175e-17, cumulative = 7.74842e-16
PIMPLE: iteration 2
smoothSolver:  Solving for Ux, Initial residual = 0.000172962, Final residual = 8.42545e-18, No Iterations 1
smoothSolver:  Solving for e, Initial residual = 4.82488e-05, Final residual = 8.84024e-17, No Iterations 2
smoothSolver:  Solving for p, Initial residual = 5.8231e-06, Final residual = 1.11347e-17, No Iterations 2
diagonal:  Solving for rho, Initial residual = 0, Final residual = 0, No Iterations 0
time step continuity errors : sum local = 1.46164e-16, global = 7.14744e-17, cumulative = 8.46316e-16
smoothSolver:  Solving for p, Initial residual = 2.08033e-08, Final residual = 8.42634e-18, No Iterations 2
diagonal:  Solving for rho, Initial residual = 0, Final residual = 0, No Iterations 0
time step continuity errors : sum local = 1.03378e-16, global = 1.08819e-17, cumulative = 8.57198e-16
ExecutionTime = 0.07 s  ClockTime = 0 s

Courant Number mean: 0.000562203 max: 0.032742
Time = 0.00017

PIMPLE: iteration 1
diagonal:  Solving for rho, Initial residual = 0, Final residual = 0, No Iterations 0
smoothSolver:  Solving for Ux, Initial residual = 0.00907843, Final residual = 8.92301e-18, No Iterations 1
smoothSolver:  Solving for e, Initial residual = 0.000911027, Final residual = 9.57709e-16, No Iterations 2
smoothSolver:  Solving for p, Initial residual = 0.000368498, Final residual = 3.08221e-16, No Iterations 2
diagonal:  Solving for rho, Initial residual = 0, Final residual = 0, No Iterations 0
time step continuity errors : sum local = 6.78636e-16, global = -4.99579e-17, cumulative = 8.0724e-16
smoothSolver:  Solving for p, Initial residual = 2.97548e-06, Final residual = 1.01164e-17, No Iterations 2
diagonal:  Solving for rho, Initial residual = 0, Final residual = 0, No Iterations 0
time step continuity errors : sum local = 1.09561e-16, global = 2.72048e-18, cumulative = 8.09961e-16
PIMPLE: iteration 2
smoothSolver:  Solving for Ux, Initial residual = 0.000156527, Final residual = 1.85269e-17, No Iterations 1
smoothSolver:  Solving for e, Initial residual = 5.41883e-05, Final residual = 1.19703e-16, No Iterations 2
smoothSolver:  Solving for p, Initial residual = 6.4546e-06, Final residual = 1.44345e-17, No Iterations 2
diagonal:  Solving for rho, Initial residual = 0, Final residual = 0, No Iterations 0
time step continuity errors : sum local = 1.57046e-16, global = 6.35603e-17, cumulative = 8.73521e-16
smoothSolver:  Solving for p, Initial residual = 2.47765e-08, Final residual = 1.00316e-17, No Iterations 2
diagonal:  Solving for rho, Initial residual = 0, Final residual = 0, No Iterations 0
time step continuity errors : sum local = 9.84318e-17, global = 2.27531e-17, cumulative = 8.96274e-16
ExecutionTime = 0.07 s  ClockTime = 0 s

Courant Number mean: 0.000573993 max: 0.0322963
Time = 0.00018

PIMPLE: iteration 1
diagonal:  Solving for rho, Initial residual = 0, Final residual = 0, No Iterations 0
smoothSolver:  Solving for Ux, Initial residual = 0.00860623, Final residual = 4.54793e-18, No Iterations 1
smoothSolver:  Solving for e, Initial residual = 0.000884911, Final residual = 3.47246e-17, No Iterations 3
smoothSolver:  Solving for p, Initial residual = 0.000370839, Final residual = 3.09076e-16, No Iterations 2
diagonal:  Solving for rho, Initial residual = 0, Final residual = 0, No Iterations 0
time step continuity errors : sum local = 6.64539e-16, global = -5.41622e-17, cumulative = 8.42112e-16
smoothSolver:  Solving for p, Initial residual = 3.11795e-06, Final residual = 1.21074e-17, No Iterations 2
diagonal:  Solving for rho, Initial residual = 0, Final residual = 0, No Iterations 0
time step continuity errors : sum local = 9.37328e-17, global = 1.16239e-17, cumulative = 8.53735e-16
PIMPLE: iteration 2
smoothSolver:  Solving for Ux, Initial residual = 0.000142965, Final residual = 8.24636e-18, No Iterations 1
smoothSolver:  Solving for e, Initial residual = 5.91247e-05, Final residual = 1.7254e-16, No Iterations 2
smoothSolver:  Solving for p, Initial residual = 6.98126e-06, Final residual = 1.04458e-17, No Iterations 2
diagonal:  Solving for rho, Initial residual = 0, Final residual = 0, No Iterations 0
time step continuity errors : sum local = 1.48884e-16, global = 5.49042e-17, cumulative = 9.0864e-16
smoothSolver:  Solving for p, Initial residual = 2.9428e-08, Final residual = 6.94636e-18, No Iterations 2
diagonal:  Solving for rho, Initial residual = 0, Final residual = 0, No Iterations 0
time step continuity errors : sum local = 1.05357e-16, global = 1.68175e-17, cumulative = 9.25457e-16
ExecutionTime = 0.08 s  ClockTime = 0 s

Courant Number mean: 0.000586004 max: 0.0318292
Time = 0.00019

PIMPLE: iteration 1
diagonal:  Solving for rho, Initial residual = 0, Final residual = 0, No Iterations 0
smoothSolver:  Solving for Ux, Initial residual = 0.0081888, Final residual = 3.31584e-18, No Iterations 1
smoothSolver:  Solving for e, Initial residual = 0.000855848, Final residual = 4.63941e-17, No Iterations 3
smoothSolver:  Solving for p, Initial residual = 0.000372246, Final residual = 3.01432e-16, No Iterations 2
diagonal:  Solving for rho, Initial residual = 0, Final residual = 0, No Iterations 0
time step continuity errors : sum local = 6.67012e-16, global = -5.11945e-17, cumulative = 8.74263e-16
smoothSolver:  Solving for p, Initial residual = 3.25495e-06, Final residual = 1.13804e-17, No Iterations 2
diagonal:  Solving for rho, Initial residual = 0, Final residual = 0, No Iterations 0
time step continuity errors : sum local = 1.25142e-16, global = -2.47316e-18, cumulative = 8.7179e-16
PIMPLE: iteration 2
smoothSolver:  Solving for Ux, Initial residual = 0.000131891, Final residual = 2.09031e-17, No Iterations 1
smoothSolver:  Solving for e, Initial residual = 6.32379e-05, Final residual = 2.52463e-16, No Iterations 2
smoothSolver:  Solving for p, Initial residual = 7.42375e-06, Final residual = 1.40259e-17, No Iterations 2
diagonal:  Solving for rho, Initial residual = 0, Final residual = 0, No Iterations 0
time step continuity errors : sum local = 1.56551e-16, global = 6.30656e-17, cumulative = 9.34855e-16
smoothSolver:  Solving for p, Initial residual = 3.46041e-08, Final residual = 1.07207e-17, No Iterations 2
diagonal:  Solving for rho, Initial residual = 0, Final residual = 0, No Iterations 0
time step continuity errors : sum local = 1.0783e-16, global = -4.94632e-19, cumulative = 9.34361e-16
ExecutionTime = 0.08 s  ClockTime = 0 s

Courant Number mean: 0.000598437 max: 0.0313552
Time = 0.0002

PIMPLE: iteration 1
diagonal:  Solving for rho, Initial residual = 0, Final residual = 0, No Iterations 0
smoothSolver:  Solving for Ux, Initial residual = 0.00781586, Final residual = 8.28934e-18, No Iterations 1
smoothSolver:  Solving for e, Initial residual = 0.000823818, Final residual = 3.68769e-17, No Iterations 3
smoothSolver:  Solving for p, Initial residual = 0.00037287, Final residual = 3.04326e-16, No Iterations 2
diagonal:  Solving for rho, Initial residual = 0, Final residual = 0, No Iterations 0
time step continuity errors : sum local = 6.71711e-16, global = -5.63881e-17, cumulative = 8.77972e-16
smoothSolver:  Solving for p, Initial residual = 3.38597e-06, Final residual = 1.12593e-17, No Iterations 2
diagonal:  Solving for rho, Initial residual = 0, Final residual = 0, No Iterations 0
time step continuity errors : sum local = 1.02142e-16, global = 1.26131e-17, cumulative = 8.90586e-16
PIMPLE: iteration 2
smoothSolver:  Solving for Ux, Initial residual = 0.000122146, Final residual = 9.03111e-18, No Iterations 1
smoothSolver:  Solving for e, Initial residual = 6.57916e-05, Final residual = 3.89744e-16, No Iterations 2
smoothSolver:  Solving for p, Initial residual = 7.71282e-06, Final residual = 1.45413e-17, No Iterations 2
diagonal:  Solving for rho, Initial residual = 0, Final residual = 0, No Iterations 0
time step continuity errors : sum local = 1.5754e-16, global = 7.04851e-17, cumulative = 9.61071e-16
smoothSolver:  Solving for p, Initial residual = 3.9037e-08, Final residual = 9.37244e-18, No Iterations 2
diagonal:  Solving for rho, Initial residual = 0, Final residual = 0, No Iterations 0
time step continuity errors : sum local = 1.06346e-16, global = 2.96779e-18, cumulative = 9.64039e-16
ExecutionTime = 0.08 s  ClockTime = 0 s

Courant Number mean: 0.000611352 max: 0.0308851
Time = 0.00021

PIMPLE: iteration 1
diagonal:  Solving for rho, Initial residual = 0, Final residual = 0, No Iterations 0
smoothSolver:  Solving for Ux, Initial residual = 0.00748, Final residual = 1.15374e-17, No Iterations 1
smoothSolver:  Solving for e, Initial residual = 0.000789806, Final residual = 4.02157e-17, No Iterations 3
smoothSolver:  Solving for p, Initial residual = 0.000372856, Final residual = 3.05666e-16, No Iterations 2
diagonal:  Solving for rho, Initial residual = 0, Final residual = 0, No Iterations 0
time step continuity errors : sum local = 6.65775e-16, global = -5.58935e-17, cumulative = 9.08145e-16
smoothSolver:  Solving for p, Initial residual = 3.50916e-06, Final residual = 1.10575e-17, No Iterations 2
diagonal:  Solving for rho, Initial residual = 0, Final residual = 0, No Iterations 0
time step continuity errors : sum local = 1.04367e-16, global = 9.89265e-19, cumulative = 9.09134e-16
PIMPLE: iteration 2
smoothSolver:  Solving for Ux, Initial residual = 0.000112962, Final residual = 6.97983e-18, No Iterations 1
smoothSolver:  Solving for e, Initial residual = 6.66948e-05, Final residual = 5.68757e-16, No Iterations 2
smoothSolver:  Solving for p, Initial residual = 7.81832e-06, Final residual = 1.648e-17, No Iterations 2
diagonal:  Solving for rho, Initial residual = 0, Final residual = 0, No Iterations 0
time step continuity errors : sum local = 1.5111e-16, global = 6.94958e-17, cumulative = 9.7863e-16
smoothSolver:  Solving for p, Initial residual = 4.19123e-08, Final residual = 7.40509e-18, No Iterations 2
diagonal:  Solving for rho, Initial residual = 0, Final residual = 0, No Iterations 0
time step continuity errors : sum local = 1.014e-16, global = 8.90338e-18, cumulative = 9.87534e-16
ExecutionTime = 0.08 s  ClockTime = 0 s

Courant Number mean: 0.000624718 max: 0.0304267
Time = 0.00022

PIMPLE: iteration 1
diagonal:  Solving for rho, Initial residual = 0, Final residual = 0, No Iterations 0
smoothSolver:  Solving for Ux, Initial residual = 0.00717592, Final residual = 1.645e-17, No Iterations 1
smoothSolver:  Solving for e, Initial residual = 0.000755521, Final residual = 4.13645e-17, No Iterations 3
smoothSolver:  Solving for p, Initial residual = 0.000372333, Final residual = 2.9767e-16, No Iterations 2
diagonal:  Solving for rho, Initial residual = 0, Final residual = 0, No Iterations 0
time step continuity errors : sum local = 6.58603e-16, global = -4.22911e-17, cumulative = 9.45242e-16
smoothSolver:  Solving for p, Initial residual = 3.62273e-06, Final residual = 9.61617e-18, No Iterations 2
diagonal:  Solving for rho, Initial residual = 0, Final residual = 0, No Iterations 0
time step continuity errors : sum local = 1.03873e-16, global = -4.94632e-18, cumulative = 9.40296e-16
PIMPLE: iteration 2
smoothSolver:  Solving for Ux, Initial residual = 0.000104148, Final residual = 1.18846e-17, No Iterations 1
smoothSolver:  Solving for e, Initial residual = 6.62181e-05, Final residual = 8.20568e-16, No Iterations 2
smoothSolver:  Solving for p, Initial residual = 7.76778e-06, Final residual = 1.6594e-17, No Iterations 2
diagonal:  Solving for rho, Initial residual = 0, Final residual = 0, No Iterations 0
time step continuity errors : sum local = 1.41465e-16, global = 5.7872e-17, cumulative = 9.98168e-16
smoothSolver:  Solving for p, Initial residual = 4.32158e-08, Final residual = 1.01724e-17, No Iterations 2
diagonal:  Solving for rho, Initial residual = 0, Final residual = 0, No Iterations 0
time step continuity errors : sum local = 1.00905e-16, global = -1.97853e-18, cumulative = 9.9619e-16
ExecutionTime = 0.08 s  ClockTime = 0 s

Courant Number mean: 0.00063848 max: 0.0299855
Time = 0.00023

PIMPLE: iteration 1
diagonal:  Solving for rho, Initial residual = 0, Final residual = 0, No Iterations 0
smoothSolver:  Solving for Ux, Initial residual = 0.00689945, Final residual = 8.36367e-18, No Iterations 1
smoothSolver:  Solving for e, Initial residual = 0.000733546, Final residual = 3.69014e-17, No Iterations 3
smoothSolver:  Solving for p, Initial residual = 0.000371408, Final residual = 3.00021e-16, No Iterations 2
diagonal:  Solving for rho, Initial residual = 0, Final residual = 0, No Iterations 0
time step continuity errors : sum local = 6.65775e-16, global = -6.1829e-17, cumulative = 9.34361e-16
smoothSolver:  Solving for p, Initial residual = 3.7254e-06, Final residual = 8.77018e-18, No Iterations 2
diagonal:  Solving for rho, Initial residual = 0, Final residual = 0, No Iterations 0
time step continuity errors : sum local = 1.07088e-16, global = 1.06346e-17, cumulative = 9.44995e-16
PIMPLE: iteration 2
smoothSolver:  Solving for Ux, Initial residual = 9.57377e-05, Final residual = 6.89499e-18, No Iterations 1
smoothSolver:  Solving for e, Initial residual = 6.4775e-05, Final residual = 4.45922e-17, No Iterations 3
smoothSolver:  Solving for p, Initial residual = 7.60637e-06, Final residual = 1.41543e-17, No Iterations 2
diagonal:  Solving for rho, Initial residual = 0, Final residual = 0, No Iterations 0
time step continuity errors : sum local = 1.42207e-16, global = 4.67428e-17, cumulative = 9.91738e-16
smoothSolver:  Solving for p, Initial residual = 4.32728e-08, Final residual = 1.47785e-17, No Iterations 2
diagonal:  Solving for rho, Initial residual = 0, Final residual = 0, No Iterations 0
time step continuity errors : sum local = 9.79372e-17, global = 8.90338e-18, cumulative = 1.00064e-15
ExecutionTime = 0.09 s  ClockTime = 0 s

Courant Number mean: 0.000652591 max: 0.0295651
Time = 0.00024

PIMPLE: iteration 1
diagonal:  Solving for rho, Initial residual = 0, Final residual = 0, No Iterations 0
smoothSolver:  Solving for Ux, Initial residual = 0.00664718, Final residual = 2.3415e-17, No Iterations 1
smoothSolver:  Solving for e, Initial residual = 0.000740264, Final residual = 4.66269e-17, No Iterations 3
smoothSolver:  Solving for p, Initial residual = 0.000370165, Final residual = 2.96087e-16, No Iterations 2
diagonal:  Solving for rho, Initial residual = 0, Final residual = 0, No Iterations 0
time step continuity errors : sum local = 6.30904e-16, global = -4.92159e-17, cumulative = 9.51425e-16
smoothSolver:  Solving for p, Initial residual = 3.81662e-06, Final residual = 1.24267e-17, No Iterations 2
diagonal:  Solving for rho, Initial residual = 0, Final residual = 0, No Iterations 0
time step continuity errors : sum local = 1.07088e-16, global = 8.16143e-18, cumulative = 9.59587e-16
PIMPLE: iteration 2
smoothSolver:  Solving for Ux, Initial residual = 8.78603e-05, Final residual = 3.78457e-18, No Iterations 1
smoothSolver:  Solving for e, Initial residual = 3.45153e-05, Final residual = 4.72341e-17, No Iterations 3
smoothSolver:  Solving for p, Initial residual = 4.18589e-06, Final residual = 1.19223e-17, No Iterations 2
diagonal:  Solving for rho, Initial residual = 0, Final residual = 0, No Iterations 0
time step continuity errors : sum local = 1.4097e-16, global = 5.63881e-17, cumulative = 1.01597e-15
smoothSolver:  Solving for p, Initial residual = 2.01537e-08, Final residual = 1.01468e-17, No Iterations 2
diagonal:  Solving for rho, Initial residual = 0, Final residual = 0, No Iterations 0
time step continuity errors : sum local = 9.94211e-17, global = 5.93559e-18, cumulative = 1.02191e-15
ExecutionTime = 0.09 s  ClockTime = 0 s

Courant Number mean: 0.000667028 max: 0.0291678
Time = 0.00025

PIMPLE: iteration 1
diagonal:  Solving for rho, Initial residual = 0, Final residual = 0, No Iterations 0
smoothSolver:  Solving for Ux, Initial residual = 0.0064162, Final residual = 1.6158e-17, No Iterations 1
smoothSolver:  Solving for e, Initial residual = 0.000746429, Final residual = 4.42135e-17, No Iterations 3
smoothSolver:  Solving for p, Initial residual = 0.000371694, Final residual = 2.97921e-16, No Iterations 2
diagonal:  Solving for rho, Initial residual = 0, Final residual = 0, No Iterations 0
time step continuity errors : sum local = 6.54151e-16, global = -5.96032e-17, cumulative = 9.62307e-16
smoothSolver:  Solving for p, Initial residual = 3.93336e-06, Final residual = 1.00429e-17, No Iterations 2
diagonal:  Solving for rho, Initial residual = 0, Final residual = 0, No Iterations 0
time step continuity errors : sum local = 1.08572e-16, global = 2.22585e-18, cumulative = 9.64533e-16
PIMPLE: iteration 2
smoothSolver:  Solving for Ux, Initial residual = 8.05864e-05, Final residual = 1.73387e-17, No Iterations 1
smoothSolver:  Solving for e, Initial residual = 3.21759e-05, Final residual = 4.67026e-17, No Iterations 3
smoothSolver:  Solving for p, Initial residual = 3.91596e-06, Final residual = 1.1495e-17, No Iterations 2
diagonal:  Solving for rho, Initial residual = 0, Final residual = 0, No Iterations 0
time step continuity errors : sum local = 1.39981e-16, global = 5.98505e-17, cumulative = 1.02438e-15
smoothSolver:  Solving for p, Initial residual = 1.83706e-08, Final residual = 1.24002e-17, No Iterations 2
diagonal:  Solving for rho, Initial residual = 0, Final residual = 0, No Iterations 0
time step continuity errors : sum local = 9.17543e-17, global = 1.31078e-17, cumulative = 1.03749e-15
ExecutionTime = 0.09 s  ClockTime = 0 s

Courant Number mean: 0.00068179 max: 0.0287949
Time = 0.00026

PIMPLE: iteration 1
diagonal:  Solving for rho, Initial residual = 0, Final residual = 0, No Iterations 0
smoothSolver:  Solving for Ux, Initial residual = 0.00622192, Final residual = 9.84532e-18, No Iterations 1
smoothSolver:  Solving for e, Initial residual = 0.000752186, Final residual = 4.08567e-17, No Iterations 3
smoothSolver:  Solving for p, Initial residual = 0.00037302, Final residual = 2.96294e-16, No Iterations 2
diagonal:  Solving for rho, Initial residual = 0, Final residual = 0, No Iterations 0
time step continuity errors : sum local = 6.3585e-16, global = -4.08072e-17, cumulative = 9.96684e-16
smoothSolver:  Solving for p, Initial residual = 4.04013e-06, Final residual = 1.27388e-17, No Iterations 2
diagonal:  Solving for rho, Initial residual = 0, Final residual = 0, No Iterations 0
time step continuity errors : sum local = 1.11787e-16, global = 1.53336e-17, cumulative = 1.01202e-15
PIMPLE: iteration 2
smoothSolver:  Solving for Ux, Initial residual = 7.39965e-05, Final residual = 1.16581e-17, No Iterations 1
smoothSolver:  Solving for e, Initial residual = 3.1843e-05, Final residual = 4.43798e-17, No Iterations 3
smoothSolver:  Solving for p, Initial residual = 3.877e-06, Final residual = 1.14124e-17, No Iterations 2
diagonal:  Solving for rho, Initial residual = 0, Final residual = 0, No Iterations 0
time step continuity errors : sum local = 1.5111e-16, global = 6.2571e-17, cumulative = 1.07459e-15
smoothSolver:  Solving for p, Initial residual = 1.87371e-08, Final residual = 1.05976e-17, No Iterations 2
diagonal:  Solving for rho, Initial residual = 0, Final residual = 0, No Iterations 0
time step continuity errors : sum local = 1.10798e-16, global = -2.47316e-18, cumulative = 1.07212e-15
ExecutionTime = 0.09 s  ClockTime = 0 s

Courant Number mean: 0.000696887 max: 0.0284473
Time = 0.00027

PIMPLE: iteration 1
diagonal:  Solving for rho, Initial residual = 0, Final residual = 0, No Iterations 0
smoothSolver:  Solving for Ux, Initial residual = 0.00611188, Final residual = 4.6267e-18, No Iterations 1
smoothSolver:  Solving for e, Initial residual = 0.000757618, Final residual = 3.91425e-17, No Iterations 3
smoothSolver:  Solving for p, Initial residual = 0.000373961, Final residual = 2.92964e-16, No Iterations 2
diagonal:  Solving for rho, Initial residual = 0, Final residual = 0, No Iterations 0
time step continuity errors : sum local = 6.37581e-16, global = -5.19364e-17, cumulative = 1.02018e-15
smoothSolver:  Solving for p, Initial residual = 4.13434e-06, Final residual = 1.30765e-17, No Iterations 2
diagonal:  Solving for rho, Initial residual = 0, Final residual = 0, No Iterations 0
time step continuity errors : sum local = 9.42275e-17, global = 1.50863e-17, cumulative = 1.03527e-15
PIMPLE: iteration 2
smoothSolver:  Solving for Ux, Initial residual = 6.80786e-05, Final residual = 1.91336e-17, No Iterations 1
smoothSolver:  Solving for e, Initial residual = 3.16639e-05, Final residual = 4.81881e-17, No Iterations 3
smoothSolver:  Solving for p, Initial residual = 3.87281e-06, Final residual = 1.32986e-17, No Iterations 2
diagonal:  Solving for rho, Initial residual = 0, Final residual = 0, No Iterations 0
time step continuity errors : sum local = 1.50616e-16, global = 4.87213e-17, cumulative = 1.08399e-15
smoothSolver:  Solving for p, Initial residual = 1.84363e-08, Final residual = 1.20879e-17, No Iterations 2
diagonal:  Solving for rho, Initial residual = 0, Final residual = 0, No Iterations 0
time step continuity errors : sum local = 1.12529e-16, global = 9.64533e-18, cumulative = 1.09363e-15
ExecutionTime = 0.1 s  ClockTime = 0 s

Courant Number mean: 0.000712338 max: 0.0281254
Time = 0.00028

PIMPLE: iteration 1
diagonal:  Solving for rho, Initial residual = 0, Final residual = 0, No Iterations 0
smoothSolver:  Solving for Ux, Initial residual = 0.00600359, Final residual = 1.27462e-17, No Iterations 1
smoothSolver:  Solving for e, Initial residual = 0.000762779, Final residual = 4.21095e-17, No Iterations 3
smoothSolver:  Solving for p, Initial residual = 0.000374534, Final residual = 2.93845e-16, No Iterations 2
diagonal:  Solving for rho, Initial residual = 0, Final residual = 0, No Iterations 0
time step continuity errors : sum local = 6.37581e-16, global = -5.49042e-17, cumulative = 1.03873e-15
smoothSolver:  Solving for p, Initial residual = 4.21733e-06, Final residual = 1.19093e-17, No Iterations 2
diagonal:  Solving for rho, Initial residual = 0, Final residual = 0, No Iterations 0
time step continuity errors : sum local = 1.06346e-16, global = 1.63229e-17, cumulative = 1.05505e-15
PIMPLE: iteration 2
smoothSolver:  Solving for Ux, Initial residual = 6.27814e-05, Final residual = 5.631e-18, No Iterations 1
smoothSolver:  Solving for e, Initial residual = 3.35868e-05, Final residual = 4.33736e-17, No Iterations 3
smoothSolver:  Solving for p, Initial residual = 4.0776e-06, Final residual = 1.30713e-17, No Iterations 2
diagonal:  Solving for rho, Initial residual = 0, Final residual = 0, No Iterations 0
time step continuity errors : sum local = 1.45422e-16, global = 4.20438e-17, cumulative = 1.09709e-15
smoothSolver:  Solving for p, Initial residual = 2.24182e-08, Final residual = 9.46285e-18, No Iterations 2
diagonal:  Solving for rho, Initial residual = 0, Final residual = 0, No Iterations 0
time step continuity errors : sum local = 9.94211e-17, global = 1.58282e-17, cumulative = 1.11292e-15
ExecutionTime = 0.1 s  ClockTime = 0 s

Courant Number mean: 0.000728158 max: 0.0278293
Time = 0.00029

PIMPLE: iteration 1
diagonal:  Solving for rho, Initial residual = 0, Final residual = 0, No Iterations 0
smoothSolver:  Solving for Ux, Initial residual = 0.0058974, Final residual = 8.99405e-18, No Iterations 1
smoothSolver:  Solving for e, Initial residual = 0.000767717, Final residual = 4.18078e-17, No Iterations 3
smoothSolver:  Solving for p, Initial residual = 0.000374764, Final residual = 2.95018e-16, No Iterations 2
diagonal:  Solving for rho, Initial residual = 0, Final residual = 0, No Iterations 0
time step continuity errors : sum local = 6.39312e-16, global = -5.96032e-17, cumulative = 1.05332e-15
smoothSolver:  Solving for p, Initial residual = 4.28936e-06, Final residual = 1.22927e-17, No Iterations 2
diagonal:  Solving for rho, Initial residual = 0, Final residual = 0, No Iterations 0
time step continuity errors : sum local = 9.54641e-17, global = 1.4839e-18, cumulative = 1.0548e-15
PIMPLE: iteration 2
smoothSolver:  Solving for Ux, Initial residual = 5.80381e-05, Final residual = 1.131e-17, No Iterations 1
smoothSolver:  Solving for e, Initial residual = 3.54811e-05, Final residual = 5.15253e-17, No Iterations 3
smoothSolver:  Solving for p, Initial residual = 4.28157e-06, Final residual = 9.30103e-18, No Iterations 2
diagonal:  Solving for rho, Initial residual = 0, Final residual = 0, No Iterations 0
time step continuity errors : sum local = 1.474e-16, global = 5.19364e-17, cumulative = 1.10674e-15
smoothSolver:  Solving for p, Initial residual = 2.64591e-08, Final residual = 1.01576e-17, No Iterations 2
diagonal:  Solving for rho, Initial residual = 0, Final residual = 0, No Iterations 0
time step continuity errors : sum local = 1.08324e-16, global = -8.40875e-18, cumulative = 1.09833e-15
ExecutionTime = 0.1 s  ClockTime = 0 s

Courant Number mean: 0.000744362 max: 0.0275589
Time = 0.0003

PIMPLE: iteration 1
diagonal:  Solving for rho, Initial residual = 0, Final residual = 0, No Iterations 0
smoothSolver:  Solving for Ux, Initial residual = 0.00579355, Final residual = 9.1458e-18, No Iterations 1
smoothSolver:  Solving for e, Initial residual = 0.000772471, Final residual = 4.67218e-17, No Iterations 3
smoothSolver:  Solving for p, Initial residual = 0.000374674, Final residual = 2.93261e-16, No Iterations 2
diagonal:  Solving for rho, Initial residual = 0, Final residual = 0, No Iterations 0
time step continuity errors : sum local = 6.48216e-16, global = -6.20764e-17, cumulative = 1.03625e-15
smoothSolver:  Solving for p, Initial residual = 4.35059e-06, Final residual = 9.68805e-18, No Iterations 2
diagonal:  Solving for rho, Initial residual = 0, Final residual = 0, No Iterations 0
time step continuity errors : sum local = 1.15002e-16, global = 9.64533e-18, cumulative = 1.0459e-15
PIMPLE: iteration 2
smoothSolver:  Solving for Ux, Initial residual = 5.37827e-05, Final residual = 1.22937e-17, No Iterations 1
smoothSolver:  Solving for e, Initial residual = 3.73551e-05, Final residual = 5.16506e-17, No Iterations 3
smoothSolver:  Solving for p, Initial residual = 4.48539e-06, Final residual = 1.34526e-17, No Iterations 2
diagonal:  Solving for rho, Initial residual = 0, Final residual = 0, No Iterations 0
time step continuity errors : sum local = 1.37013e-16, global = 5.2431e-17, cumulative = 1.09833e-15
smoothSolver:  Solving for p, Initial residual = 3.05771e-08, Final residual = 1.09675e-17, No Iterations 2
diagonal:  Solving for rho, Initial residual = 0, Final residual = 0, No Iterations 0
time step continuity errors : sum local = 1.03873e-16, global = -4.94632e-19, cumulative = 1.09784e-15
ExecutionTime = 0.1 s  ClockTime = 0 s

Courant Number mean: 0.00076096 max: 0.0273138
Time = 0.00031

PIMPLE: iteration 1
diagonal:  Solving for rho, Initial residual = 0, Final residual = 0, No Iterations 0
smoothSolver:  Solving for Ux, Initial residual = 0.00569222, Final residual = 1.02451e-17, No Iterations 1
smoothSolver:  Solving for e, Initial residual = 0.000777077, Final residual = 4.41372e-17, No Iterations 3
smoothSolver:  Solving for p, Initial residual = 0.000374283, Final residual = 2.94285e-16, No Iterations 2
diagonal:  Solving for rho, Initial residual = 0, Final residual = 0, No Iterations 0
time step continuity errors : sum local = 6.40796e-16, global = -3.68501e-17, cumulative = 1.06099e-15
smoothSolver:  Solving for p, Initial residual = 4.40114e-06, Final residual = 1.27629e-17, No Iterations 2
diagonal:  Solving for rho, Initial residual = 0, Final residual = 0, No Iterations 0
time step continuity errors : sum local = 1.03131e-16, global = 1.55809e-17, cumulative = 1.07657e-15
PIMPLE: iteration 2
smoothSolver:  Solving for Ux, Initial residual = 4.99573e-05, Final residual = 6.99383e-18, No Iterations 1
smoothSolver:  Solving for e, Initial residual = 3.9214e-05, Final residual = 4.76171e-17, No Iterations 3
smoothSolver:  Solving for p, Initial residual = 4.68938e-06, Final residual = 8.9046e-18, No Iterations 2
diagonal:  Solving for rho, Initial residual = 0, Final residual = 0, No Iterations 0
time step continuity errors : sum local = 1.37013e-16, global = 7.41949e-17, cumulative = 1.15076e-15
smoothSolver:  Solving for p, Initial residual = 3.4858e-08, Final residual = 1.05822e-17, No Iterations 2
diagonal:  Solving for rho, Initial residual = 0, Final residual = 0, No Iterations 0
time step continuity errors : sum local = 1.00905e-16, global = 6.92485e-18, cumulative = 1.15769e-15
ExecutionTime = 0.1 s  ClockTime = 0 s

Courant Number mean: 0.00077796 max: 0.0270938
Time = 0.00032

PIMPLE: iteration 1
diagonal:  Solving for rho, Initial residual = 0, Final residual = 0, No Iterations 0
smoothSolver:  Solving for Ux, Initial residual = 0.00559219, Final residual = 1.35032e-17, No Iterations 1
smoothSolver:  Solving for e, Initial residual = 0.000781565, Final residual = 3.89044e-17, No Iterations 3
smoothSolver:  Solving for p, Initial residual = 0.00037361, Final residual = 2.93331e-16, No Iterations 2
diagonal:  Solving for rho, Initial residual = 0, Final residual = 0, No Iterations 0
time step continuity errors : sum local = 6.36839e-16, global = -6.15817e-17, cumulative = 1.09611e-15
smoothSolver:  Solving for p, Initial residual = 4.44114e-06, Final residual = 1.46205e-17, No Iterations 2
diagonal:  Solving for rho, Initial residual = 0, Final residual = 0, No Iterations 0
time step continuity errors : sum local = 9.94211e-17, global = 2.37424e-17, cumulative = 1.11985e-15
PIMPLE: iteration 2
smoothSolver:  Solving for Ux, Initial residual = 4.64844e-05, Final residual = 1.39773e-17, No Iterations 1
smoothSolver:  Solving for e, Initial residual = 4.09632e-05, Final residual = 4.58825e-17, No Iterations 3
smoothSolver:  Solving for p, Initial residual = 4.88271e-06, Final residual = 1.1155e-17, No Iterations 2
diagonal:  Solving for rho, Initial residual = 0, Final residual = 0, No Iterations 0
time step continuity errors : sum local = 1.55562e-16, global = 5.51515e-17, cumulative = 1.175e-15
smoothSolver:  Solving for p, Initial residual = 3.9151e-08, Final residual = 1.26285e-17, No Iterations 2
diagonal:  Solving for rho, Initial residual = 0, Final residual = 0, No Iterations 0
time step continuity errors : sum local = 1.09314e-16, global = -2.12692e-17, cumulative = 1.15373e-15
ExecutionTime = 0.11 s  ClockTime = 0 s

Courant Number mean: 0.000795354 max: 0.0268985
Time = 0.00033

PIMPLE: iteration 1
diagonal:  Solving for rho, Initial residual = 0, Final residual = 0, No Iterations 0
smoothSolver:  Solving for Ux, Initial residual = 0.00549086, Final residual = 1.31057e-17, No Iterations 1
smoothSolver:  Solving for e, Initial residual = 0.000785963, Final residual = 4.62112e-17, No Iterations 3
smoothSolver:  Solving for p, Initial residual = 0.000372672, Final residual = 2.90502e-16, No Iterations 2
diagonal:  Solving for rho, Initial residual = 0, Final residual = 0, No Iterations 0
time step continuity errors : sum local = 6.32388e-16, global = -6.30656e-17, cumulative = 1.09066e-15
smoothSolver:  Solving for p, Initial residual = 4.47085e-06, Final residual = 1.31111e-17, No Iterations 2
diagonal:  Solving for rho, Initial residual = 0, Final residual = 0, No Iterations 0
time step continuity errors : sum local = 1.10798e-16, global = 2.47316e-18, cumulative = 1.09314e-15
PIMPLE: iteration 2
smoothSolver:  Solving for Ux, Initial residual = 4.48884e-05, Final residual = 9.68751e-18, No Iterations 1
smoothSolver:  Solving for e, Initial residual = 4.27427e-05, Final residual = 6.74036e-17, No Iterations 3
smoothSolver:  Solving for p, Initial residual = 5.12081e-06, Final residual = 1.40017e-17, No Iterations 2
diagonal:  Solving for rho, Initial residual = 0, Final residual = 0, No Iterations 0
time step continuity errors : sum local = 1.53336e-16, global = 4.35276e-17, cumulative = 1.13667e-15
smoothSolver:  Solving for p, Initial residual = 4.37279e-08, Final residual = 9.24113e-18, No Iterations 2
diagonal:  Solving for rho, Initial residual = 0, Final residual = 0, No Iterations 0
time step continuity errors : sum local = 1.03625e-16, global = 2.54736e-17, cumulative = 1.16214e-15
ExecutionTime = 0.11 s  ClockTime = 0 s

Courant Number mean: 0.000813126 max: 0.0267272
Time = 0.00034

PIMPLE: iteration 1
diagonal:  Solving for rho, Initial residual = 0, Final residual = 0, No Iterations 0
smoothSolver:  Solving for Ux, Initial residual = 0.00538874, Final residual = 1.40556e-17, No Iterations 1
smoothSolver:  Solving for e, Initial residual = 0.000790873, Final residual = 1.87373e-16, No Iterations 3
smoothSolver:  Solving for p, Initial residual = 0.000371524, Final residual = 2.84631e-16, No Iterations 2
diagonal:  Solving for rho, Initial residual = 0, Final residual = 0, No Iterations 0
time step continuity errors : sum local = 6.24968e-16, global = -5.36676e-17, cumulative = 1.10847e-15
smoothSolver:  Solving for p, Initial residual = 4.48574e-06, Final residual = 1.48821e-17, No Iterations 2
diagonal:  Solving for rho, Initial residual = 0, Final residual = 0, No Iterations 0
time step continuity errors : sum local = 1.16486e-16, global = 8.65607e-18, cumulative = 1.11713e-15
PIMPLE: iteration 2
smoothSolver:  Solving for Ux, Initial residual = 4.39193e-05, Final residual = 8.04497e-18, No Iterations 1
smoothSolver:  Solving for e, Initial residual = 4.41332e-05, Final residual = 7.41526e-17, No Iterations 3
smoothSolver:  Solving for p, Initial residual = 5.26282e-06, Final residual = 1.27908e-17, No Iterations 2
diagonal:  Solving for rho, Initial residual = 0, Final residual = 0, No Iterations 0
time step continuity errors : sum local = 1.5754e-16, global = 6.40549e-17, cumulative = 1.18118e-15
smoothSolver:  Solving for p, Initial residual = 4.57047e-08, Final residual = 9.8784e-18, No Iterations 2
diagonal:  Solving for rho, Initial residual = 0, Final residual = 0, No Iterations 0
time step continuity errors : sum local = 1.12529e-16, global = -2.22585e-18, cumulative = 1.17896e-15
ExecutionTime = 0.11 s  ClockTime = 0 s

Courant Number mean: 0.000831255 max: 0.0265798
Time = 0.00035

PIMPLE: iteration 1
diagonal:  Solving for rho, Initial residual = 0, Final residual = 0, No Iterations 0
smoothSolver:  Solving for Ux, Initial residual = 0.00528891, Final residual = 2.57617e-17, No Iterations 1
smoothSolver:  Solving for e, Initial residual = 0.000799252, Final residual = 2.0035e-16, No Iterations 3
smoothSolver:  Solving for p, Initial residual = 0.000370131, Final residual = 2.83269e-16, No Iterations 2
diagonal:  Solving for rho, Initial residual = 0, Final residual = 0, No Iterations 0
time step continuity errors : sum local = 6.24226e-16, global = -2.07746e-17, cumulative = 1.15818e-15
smoothSolver:  Solving for p, Initial residual = 4.49198e-06, Final residual = 1.31341e-17, No Iterations 2
diagonal:  Solving for rho, Initial residual = 0, Final residual = 0, No Iterations 0
time step continuity errors : sum local = 1.10798e-16, global = 2.27531e-17, cumulative = 1.18093e-15
PIMPLE: iteration 2
smoothSolver:  Solving for Ux, Initial residual = 4.28844e-05, Final residual = 1.74152e-17, No Iterations 1
smoothSolver:  Solving for e, Initial residual = 4.55315e-05, Final residual = 7.57715e-17, No Iterations 3
smoothSolver:  Solving for p, Initial residual = 5.43795e-06, Final residual = 1.45265e-17, No Iterations 2
diagonal:  Solving for rho, Initial residual = 0, Final residual = 0, No Iterations 0
time step continuity errors : sum local = 1.44185e-16, global = 6.00978e-17, cumulative = 1.24103e-15
smoothSolver:  Solving for p, Initial residual = 5.01238e-08, Final residual = 1.04523e-17, No Iterations 2
diagonal:  Solving for rho, Initial residual = 0, Final residual = 0, No Iterations 0
time step continuity errors : sum local = 1.01647e-16, global = 1.36024e-17, cumulative = 1.25464e-15
ExecutionTime = 0.11 s  ClockTime = 0 s

Courant Number mean: 0.000849724 max: 0.0264556
Time = 0.00036

PIMPLE: iteration 1
diagonal:  Solving for rho, Initial residual = 0, Final residual = 0, No Iterations 0
smoothSolver:  Solving for Ux, Initial residual = 0.00519197, Final residual = 1.88642e-17, No Iterations 1
smoothSolver:  Solving for e, Initial residual = 0.000807754, Final residual = 2.01339e-16, No Iterations 3
smoothSolver:  Solving for p, Initial residual = 0.000368506, Final residual = 2.83055e-16, No Iterations 2
diagonal:  Solving for rho, Initial residual = 0, Final residual = 0, No Iterations 0
time step continuity errors : sum local = 6.02215e-16, global = -4.03125e-17, cumulative = 1.21432e-15
smoothSolver:  Solving for p, Initial residual = 4.48803e-06, Final residual = 1.52162e-17, No Iterations 2
diagonal:  Solving for rho, Initial residual = 0, Final residual = 0, No Iterations 0
time step continuity errors : sum local = 9.91738e-17, global = 1.06346e-17, cumulative = 1.22496e-15
PIMPLE: iteration 2
smoothSolver:  Solving for Ux, Initial residual = 4.17958e-05, Final residual = 1.22324e-17, No Iterations 1
smoothSolver:  Solving for e, Initial residual = 4.67619e-05, Final residual = 7.77266e-17, No Iterations 3
smoothSolver:  Solving for p, Initial residual = 5.58212e-06, Final residual = 1.68847e-17, No Iterations 2
diagonal:  Solving for rho, Initial residual = 0, Final residual = 0, No Iterations 0
time step continuity errors : sum local = 1.43443e-16, global = 5.63881e-17, cumulative = 1.28135e-15
smoothSolver:  Solving for p, Initial residual = 5.44248e-08, Final residual = 1.00061e-17, No Iterations 2
diagonal:  Solving for rho, Initial residual = 0, Final residual = 0, No Iterations 0
time step continuity errors : sum local = 9.52167e-17, global = -1.55809e-17, cumulative = 1.26576e-15
ExecutionTime = 0.11 s  ClockTime = 0 s

Courant Number mean: 0.000868516 max: 0.0263545
Time = 0.00037

PIMPLE: iteration 1
diagonal:  Solving for rho, Initial residual = 0, Final residual = 0, No Iterations 0
smoothSolver:  Solving for Ux, Initial residual = 0.0050979, Final residual = 6.09068e-18, No Iterations 1
smoothSolver:  Solving for e, Initial residual = 0.000816394, Final residual = 2.14659e-16, No Iterations 3
smoothSolver:  Solving for p, Initial residual = 0.000366678, Final residual = 2.84257e-16, No Iterations 2
diagonal:  Solving for rho, Initial residual = 0, Final residual = 0, No Iterations 0
time step continuity errors : sum local = 6.13097e-16, global = -5.41622e-17, cumulative = 1.2116e-15
smoothSolver:  Solving for p, Initial residual = 4.4743e-06, Final residual = 1.25841e-17, No Iterations 2
diagonal:  Solving for rho, Initial residual = 0, Final residual = 0, No Iterations 0
time step continuity errors : sum local = 1.11292e-16, global = -1.4839e-17, cumulative = 1.19676e-15
PIMPLE: iteration 2
smoothSolver:  Solving for Ux, Initial residual = 4.06726e-05, Final residual = 7.0561e-18, No Iterations 1
smoothSolver:  Solving for e, Initial residual = 4.78479e-05, Final residual = 7.6921e-17, No Iterations 3
smoothSolver:  Solving for p, Initial residual = 5.70557e-06, Final residual = 1.14652e-17, No Iterations 2
diagonal:  Solving for rho, Initial residual = 0, Final residual = 0, No Iterations 0
time step continuity errors : sum local = 1.57788e-16, global = 4.60008e-17, cumulative = 1.24276e-15
smoothSolver:  Solving for p, Initial residual = 5.85971e-08, Final residual = 1.00201e-17, No Iterations 2
diagonal:  Solving for rho, Initial residual = 0, Final residual = 0, No Iterations 0
time step continuity errors : sum local = 9.74426e-17, global = 7.91412e-18, cumulative = 1.25068e-15
ExecutionTime = 0.12 s  ClockTime = 0 s

Courant Number mean: 0.000887621 max: 0.0262761
Time = 0.00038

PIMPLE: iteration 1
diagonal:  Solving for rho, Initial residual = 0, Final residual = 0, No Iterations 0
smoothSolver:  Solving for Ux, Initial residual = 0.00500669, Final residual = 2.12503e-17, No Iterations 1
smoothSolver:  Solving for e, Initial residual = 0.000825185, Final residual = 2.16956e-16, No Iterations 3
smoothSolver:  Solving for p, Initial residual = 0.000364663, Final residual = 2.80344e-16, No Iterations 2
diagonal:  Solving for rho, Initial residual = 0, Final residual = 0, No Iterations 0
time step continuity errors : sum local = 6.04441e-16, global = -3.61082e-17, cumulative = 1.21457e-15
smoothSolver:  Solving for p, Initial residual = 4.45111e-06, Final residual = 1.77591e-17, No Iterations 2
diagonal:  Solving for rho, Initial residual = 0, Final residual = 0, No Iterations 0
time step continuity errors : sum local = 1.24895e-16, global = 2.47316e-19, cumulative = 1.21482e-15
PIMPLE: iteration 2
smoothSolver:  Solving for Ux, Initial residual = 3.9531e-05, Final residual = 1.80594e-17, No Iterations 1
smoothSolver:  Solving for e, Initial residual = 4.88144e-05, Final residual = 8.16761e-17, No Iterations 3
smoothSolver:  Solving for p, Initial residual = 5.81523e-06, Final residual = 1.34377e-17, No Iterations 2
diagonal:  Solving for rho, Initial residual = 0, Final residual = 0, No Iterations 0
time step continuity errors : sum local = 1.41218e-16, global = 3.98179e-17, cumulative = 1.25464e-15
smoothSolver:  Solving for p, Initial residual = 6.26928e-08, Final residual = 1.02914e-17, No Iterations 2
diagonal:  Solving for rho, Initial residual = 0, Final residual = 0, No Iterations 0
time step continuity errors : sum local = 1.14755e-16, global = -5.44096e-18, cumulative = 1.24919e-15
ExecutionTime = 0.12 s  ClockTime = 0 s

Courant Number mean: 0.000907033 max: 0.0262203
Time = 0.00039

PIMPLE: iteration 1
diagonal:  Solving for rho, Initial residual = 0, Final residual = 0, No Iterations 0
smoothSolver:  Solving for Ux, Initial residual = 0.00491829, Final residual = 1.5392e-17, No Iterations 1
smoothSolver:  Solving for e, Initial residual = 0.000834076, Final residual = 2.19637e-16, No Iterations 3
smoothSolver:  Solving for p, Initial residual = 0.000362474, Final residual = 2.79162e-16, No Iterations 2
diagonal:  Solving for rho, Initial residual = 0, Final residual = 0, No Iterations 0
time step continuity errors : sum local = 6.13839e-16, global = -5.09471e-17, cumulative = 1.19825e-15
smoothSolver:  Solving for p, Initial residual = 4.41867e-06, Final residual = 1.33185e-17, No Iterations 2
diagonal:  Solving for rho, Initial residual = 0, Final residual = 0, No Iterations 0
time step continuity errors : sum local = 9.91738e-17, global = 1.06346e-17, cumulative = 1.20888e-15
PIMPLE: iteration 2
smoothSolver:  Solving for Ux, Initial residual = 3.84048e-05, Final residual = 1.59733e-17, No Iterations 1
smoothSolver:  Solving for e, Initial residual = 4.96778e-05, Final residual = 8.55815e-17, No Iterations 3
smoothSolver:  Solving for p, Initial residual = 5.9137e-06, Final residual = 1.46202e-17, No Iterations 2
diagonal:  Solving for rho, Initial residual = 0, Final residual = 0, No Iterations 0
time step continuity errors : sum local = 1.38992e-16, global = 4.45169e-17, cumulative = 1.2534e-15
smoothSolver:  Solving for p, Initial residual = 6.67192e-08, Final residual = 1.47195e-17, No Iterations 2
diagonal:  Solving for rho, Initial residual = 0, Final residual = 0, No Iterations 0
time step continuity errors : sum local = 1.03378e-16, global = 1.43443e-17, cumulative = 1.26774e-15
ExecutionTime = 0.12 s  ClockTime = 0 s

Courant Number mean: 0.000926753 max: 0.0261871
Time = 0.0004

PIMPLE: iteration 1
diagonal:  Solving for rho, Initial residual = 0, Final residual = 0, No Iterations 0
smoothSolver:  Solving for Ux, Initial residual = 0.00483263, Final residual = 1.93743e-17, No Iterations 1
smoothSolver:  Solving for e, Initial residual = 0.00084899, Final residual = 2.40278e-16, No Iterations 3
smoothSolver:  Solving for p, Initial residual = 0.000360086, Final residual = 2.81687e-16, No Iterations 2
diagonal:  Solving for rho, Initial residual = 0, Final residual = 0, No Iterations 0
time step continuity errors : sum local = 6.11118e-16, global = -4.72374e-17, cumulative = 1.22051e-15
smoothSolver:  Solving for p, Initial residual = 4.38238e-06, Final residual = 1.35012e-17, No Iterations 2
diagonal:  Solving for rho, Initial residual = 0, Final residual = 0, No Iterations 0
time step continuity errors : sum local = 9.94211e-17, global = 3.95706e-18, cumulative = 1.22446e-15
PIMPLE: iteration 2
smoothSolver:  Solving for Ux, Initial residual = 4.01636e-05, Final residual = 1.2504e-17, No Iterations 1
smoothSolver:  Solving for e, Initial residual = 5.08036e-05, Final residual = 9.08587e-17, No Iterations 3
smoothSolver:  Solving for p, Initial residual = 6.04083e-06, Final residual = 1.32829e-17, No Iterations 2
diagonal:  Solving for rho, Initial residual = 0, Final residual = 0, No Iterations 0
time step continuity errors : sum local = 1.37013e-16, global = 3.16565e-17, cumulative = 1.25612e-15
smoothSolver:  Solving for p, Initial residual = 7.06139e-08, Final residual = 1.19125e-17, No Iterations 2
diagonal:  Solving for rho, Initial residual = 0, Final residual = 0, No Iterations 0
time step continuity errors : sum local = 1.11292e-16, global = -1.28604e-17, cumulative = 1.24326e-15
ExecutionTime = 0.12 s  ClockTime = 0 s

Courant Number mean: 0.000946789 max: 0.0261766
Time = 0.00041

PIMPLE: iteration 1
diagonal:  Solving for rho, Initial residual = 0, Final residual = 0, No Iterations 0
smoothSolver:  Solving for Ux, Initial residual = 0.00475003, Final residual = 5.22126e-18, No Iterations 1
smoothSolver:  Solving for e, Initial residual = 0.00086432, Final residual = 2.79834e-16, No Iterations 3
smoothSolver:  Solving for p, Initial residual = 0.000357536, Final residual = 2.78643e-16, No Iterations 2
diagonal:  Solving for rho, Initial residual = 0, Final residual = 0, No Iterations 0
time step continuity errors : sum local = 6.01226e-16, global = -4.27857e-17, cumulative = 1.20047e-15
smoothSolver:  Solving for p, Initial residual = 4.33757e-06, Final residual = 1.40481e-17, No Iterations 2
diagonal:  Solving for rho, Initial residual = 0, Final residual = 0, No Iterations 0
time step continuity errors : sum local = 9.94211e-17, global = 7.41949e-18, cumulative = 1.20789e-15
PIMPLE: iteration 2
smoothSolver:  Solving for Ux, Initial residual = 4.17236e-05, Final residual = 1.04057e-17, No Iterations 1
smoothSolver:  Solving for e, Initial residual = 5.17448e-05, Final residual = 9.17384e-17, No Iterations 3
smoothSolver:  Solving for p, Initial residual = 6.14815e-06, Final residual = 1.84854e-17, No Iterations 2
diagonal:  Solving for rho, Initial residual = 0, Final residual = 0, No Iterations 0
time step continuity errors : sum local = 1.4468e-16, global = 4.72374e-17, cumulative = 1.25513e-15
smoothSolver:  Solving for p, Initial residual = 7.44963e-08, Final residual = 1.10127e-17, No Iterations 2
diagonal:  Solving for rho, Initial residual = 0, Final residual = 0, No Iterations 0
time step continuity errors : sum local = 1.05109e-16, global = -7.41949e-19, cumulative = 1.25439e-15
ExecutionTime = 0.12 s  ClockTime = 0 s

Courant Number mean: 0.000967155 max: 0.0262203
Time = 0.00042

PIMPLE: iteration 1
diagonal:  Solving for rho, Initial residual = 0, Final residual = 0, No Iterations 0
smoothSolver:  Solving for Ux, Initial residual = 0.00467037, Final residual = 6.25292e-18, No Iterations 1
smoothSolver:  Solving for e, Initial residual = 0.000879998, Final residual = 3.18908e-16, No Iterations 3
smoothSolver:  Solving for p, Initial residual = 0.000354834, Final residual = 2.79172e-16, No Iterations 2
diagonal:  Solving for rho, Initial residual = 0, Final residual = 0, No Iterations 0
time step continuity errors : sum local = 6.16312e-16, global = -4.8474e-17, cumulative = 1.20591e-15
smoothSolver:  Solving for p, Initial residual = 4.28415e-06, Final residual = 1.16136e-17, No Iterations 2
diagonal:  Solving for rho, Initial residual = 0, Final residual = 0, No Iterations 0
time step continuity errors : sum local = 1.21927e-16, global = 2.20111e-17, cumulative = 1.22792e-15
PIMPLE: iteration 2
smoothSolver:  Solving for Ux, Initial residual = 4.30995e-05, Final residual = 9.80715e-18, No Iterations 1
smoothSolver:  Solving for e, Initial residual = 5.26482e-05, Final residual = 1.03992e-16, No Iterations 3
smoothSolver:  Solving for p, Initial residual = 6.25144e-06, Final residual = 1.409e-17, No Iterations 2
diagonal:  Solving for rho, Initial residual = 0, Final residual = 0, No Iterations 0
time step continuity errors : sum local = 1.51358e-16, global = 7.46895e-17, cumulative = 1.30261e-15
smoothSolver:  Solving for p, Initial residual = 7.83976e-08, Final residual = 1.15251e-17, No Iterations 2
diagonal:  Solving for rho, Initial residual = 0, Final residual = 0, No Iterations 0
time step continuity errors : sum local = 1.05109e-16, global = 1.21185e-17, cumulative = 1.31473e-15
ExecutionTime = 0.13 s  ClockTime = 0 s

Courant Number mean: 0.000987869 max: 0.0266686
Time = 0.00043

PIMPLE: iteration 1
diagonal:  Solving for rho, Initial residual = 0, Final residual = 0, No Iterations 0
smoothSolver:  Solving for Ux, Initial residual = 0.00459354, Final residual = 2.00624e-17, No Iterations 1
smoothSolver:  Solving for e, Initial residual = 0.00089602, Final residual = 3.72343e-16, No Iterations 3
smoothSolver:  Solving for p, Initial residual = 0.000351947, Final residual = 2.75807e-16, No Iterations 2
[...]
smoothSolver:  Solving for p, Initial residual = 0.00039667, Final residual = 3.09491e-16, No Iterations 2
diagonal:  Solving for rho, Initial residual = 0, Final residual = 0, No Iterations 0
time step continuity errors : sum local = 3.38334e-16, global = -2.80277e-16, cumulative = 1.30647e-14
smoothSolver:  Solving for p, Initial residual = 1.01746e-06, Final residual = 6.74754e-17, No Iterations 2
diagonal:  Solving for rho, Initial residual = 0, Final residual = 0, No Iterations 0
time step continuity errors : sum local = 1.41139e-16, global = -7.00692e-18, cumulative = 1.30577e-14
PIMPLE: iteration 2
smoothSolver:  Solving for Ux, Initial residual = 2.61963e-07, Final residual = 3.9179e-17, No Iterations 1
smoothSolver:  Solving for e, Initial residual = 5.24848e-06, Final residual = 4.85837e-17, No Iterations 3
smoothSolver:  Solving for p, Initial residual = 1.46045e-06, Final residual = 7.06929e-17, No Iterations 2
diagonal:  Solving for rho, Initial residual = 0, Final residual = 0, No Iterations 0
time step continuity errors : sum local = 1.54152e-16, global = -3.00297e-17, cumulative = 1.30277e-14
smoothSolver:  Solving for p, Initial residual = 2.50995e-08, Final residual = 7.35056e-17, No Iterations 2
diagonal:  Solving for rho, Initial residual = 0, Final residual = 0, No Iterations 0
time step continuity errors : sum local = 1.36134e-16, global = 2.00198e-17, cumulative = 1.30477e-14
ExecutionTime = 2.26 s  ClockTime = 2 s

Courant Number mean: 0.0203016 max: 0.0335914
Time = 0.00991

PIMPLE: iteration 1
diagonal:  Solving for rho, Initial residual = 0, Final residual = 0, No Iterations 0
smoothSolver:  Solving for Ux, Initial residual = 0.000395597, Final residual = 3.81545e-17, No Iterations 1
smoothSolver:  Solving for e, Initial residual = 0.000814139, Final residual = 3.07091e-17, No Iterations 4
smoothSolver:  Solving for p, Initial residual = 0.000395369, Final residual = 3.21999e-16, No Iterations 2
diagonal:  Solving for rho, Initial residual = 0, Final residual = 0, No Iterations 0
time step continuity errors : sum local = 3.2337e-16, global = -2.45281e-16, cumulative = 1.28024e-14
smoothSolver:  Solving for p, Initial residual = 1.02223e-06, Final residual = 7.00092e-17, No Iterations 2
diagonal:  Solving for rho, Initial residual = 0, Final residual = 0, No Iterations 0
time step continuity errors : sum local = 1.30149e-16, global = 4.00458e-18, cumulative = 1.28064e-14
PIMPLE: iteration 2
smoothSolver:  Solving for Ux, Initial residual = 2.55454e-07, Final residual = 3.47084e-17, No Iterations 1
smoothSolver:  Solving for e, Initial residual = 5.03824e-06, Final residual = 3.89661e-17, No Iterations 3
smoothSolver:  Solving for p, Initial residual = 1.41103e-06, Final residual = 7.28392e-17, No Iterations 2
diagonal:  Solving for rho, Initial residual = 0, Final residual = 0, No Iterations 0
time step continuity errors : sum local = 1.36156e-16, global = 3.60412e-17, cumulative = 1.28425e-14
smoothSolver:  Solving for p, Initial residual = 2.40948e-08, Final residual = 6.37275e-17, No Iterations 2
diagonal:  Solving for rho, Initial residual = 0, Final residual = 0, No Iterations 0
time step continuity errors : sum local = 1.53175e-16, global = 7.00801e-18, cumulative = 1.28495e-14
ExecutionTime = 2.26 s  ClockTime = 2 s

Courant Number mean: 0.0203066 max: 0.0334858
Time = 0.00992

PIMPLE: iteration 1
diagonal:  Solving for rho, Initial residual = 0, Final residual = 0, No Iterations 0
smoothSolver:  Solving for Ux, Initial residual = 0.000394325, Final residual = 3.85541e-17, No Iterations 1
smoothSolver:  Solving for e, Initial residual = 0.000813072, Final residual = 3.69117e-17, No Iterations 4
smoothSolver:  Solving for p, Initial residual = 0.000394276, Final residual = 3.07686e-16, No Iterations 2
diagonal:  Solving for rho, Initial residual = 0, Final residual = 0, No Iterations 0
time step continuity errors : sum local = 3.17412e-16, global = -2.39311e-16, cumulative = 1.26102e-14
smoothSolver:  Solving for p, Initial residual = 1.04629e-06, Final residual = 7.5977e-17, No Iterations 2
diagonal:  Solving for rho, Initial residual = 0, Final residual = 0, No Iterations 0
time step continuity errors : sum local = 1.40182e-16, global = -1.80234e-17, cumulative = 1.25922e-14
PIMPLE: iteration 2
smoothSolver:  Solving for Ux, Initial residual = 2.49037e-07, Final residual = 4.30457e-17, No Iterations 1
smoothSolver:  Solving for e, Initial residual = 4.80236e-06, Final residual = 3.6514e-17, No Iterations 3
smoothSolver:  Solving for p, Initial residual = 1.35319e-06, Final residual = 7.20104e-17, No Iterations 2
diagonal:  Solving for rho, Initial residual = 0, Final residual = 0, No Iterations 0
time step continuity errors : sum local = 1.57204e-16, global = 2.30299e-17, cumulative = 1.26152e-14
smoothSolver:  Solving for p, Initial residual = 2.30334e-08, Final residual = 7.45865e-17, No Iterations 2
diagonal:  Solving for rho, Initial residual = 0, Final residual = 0, No Iterations 0
time step continuity errors : sum local = 1.53199e-16, global = 1.10143e-17, cumulative = 1.26262e-14
ExecutionTime = 2.26 s  ClockTime = 2 s

Courant Number mean: 0.0203117 max: 0.0333869
Time = 0.00993

PIMPLE: iteration 1
diagonal:  Solving for rho, Initial residual = 0, Final residual = 0, No Iterations 0
smoothSolver:  Solving for Ux, Initial residual = 0.000393074, Final residual = 3.63152e-17, No Iterations 1
smoothSolver:  Solving for e, Initial residual = 0.000811816, Final residual = 3.51516e-17, No Iterations 4
smoothSolver:  Solving for p, Initial residual = 0.000393552, Final residual = 3.0576e-16, No Iterations 2
diagonal:  Solving for rho, Initial residual = 0, Final residual = 0, No Iterations 0
time step continuity errors : sum local = 3.06446e-16, global = -2.08303e-16, cumulative = 1.24179e-14
smoothSolver:  Solving for p, Initial residual = 1.06748e-06, Final residual = 7.12535e-17, No Iterations 2
diagonal:  Solving for rho, Initial residual = 0, Final residual = 0, No Iterations 0
time step continuity errors : sum local = 1.60233e-16, global = -2.40349e-17, cumulative = 1.23939e-14
PIMPLE: iteration 2
smoothSolver:  Solving for Ux, Initial residual = 2.42704e-07, Final residual = 3.26749e-17, No Iterations 1
smoothSolver:  Solving for e, Initial residual = 4.61254e-06, Final residual = 4.30189e-17, No Iterations 3
smoothSolver:  Solving for p, Initial residual = 1.30646e-06, Final residual = 6.68624e-17, No Iterations 2
diagonal:  Solving for rho, Initial residual = 0, Final residual = 0, No Iterations 0
time step continuity errors : sum local = 1.59231e-16, global = 1.30189e-17, cumulative = 1.24069e-14
smoothSolver:  Solving for p, Initial residual = 2.18353e-08, Final residual = 6.05301e-17, No Iterations 2
diagonal:  Solving for rho, Initial residual = 0, Final residual = 0, No Iterations 0
time step continuity errors : sum local = 1.55226e-16, global = 5.00728e-18, cumulative = 1.24119e-14
ExecutionTime = 2.26 s  ClockTime = 2 s

Courant Number mean: 0.0203168 max: 0.0332946
Time = 0.00994

PIMPLE: iteration 1
diagonal:  Solving for rho, Initial residual = 0, Final residual = 0, No Iterations 0
smoothSolver:  Solving for Ux, Initial residual = 0.000391862, Final residual = 3.35724e-17, No Iterations 1
smoothSolver:  Solving for e, Initial residual = 0.000810019, Final residual = 3.60422e-17, No Iterations 4
smoothSolver:  Solving for p, Initial residual = 0.000393743, Final residual = 3.14196e-16, No Iterations 2
diagonal:  Solving for rho, Initial residual = 0, Final residual = 0, No Iterations 0
time step continuity errors : sum local = 3.21517e-16, global = -2.79449e-16, cumulative = 1.21324e-14
smoothSolver:  Solving for p, Initial residual = 1.08342e-06, Final residual = 7.71907e-17, No Iterations 2
diagonal:  Solving for rho, Initial residual = 0, Final residual = 0, No Iterations 0
time step continuity errors : sum local = 1.42229e-16, global = 6.00966e-18, cumulative = 1.21384e-14
PIMPLE: iteration 2
smoothSolver:  Solving for Ux, Initial residual = 2.36527e-07, Final residual = 3.78875e-17, No Iterations 1
smoothSolver:  Solving for e, Initial residual = 4.4675e-06, Final residual = 4.09233e-17, No Iterations 3
smoothSolver:  Solving for p, Initial residual = 1.26305e-06, Final residual = 5.50183e-17, No Iterations 2
diagonal:  Solving for rho, Initial residual = 0, Final residual = 0, No Iterations 0
time step continuity errors : sum local = 1.36219e-16, global = 4.00644e-18, cumulative = 1.21425e-14
smoothSolver:  Solving for p, Initial residual = 1.97463e-08, Final residual = 7.1012e-17, No Iterations 2
diagonal:  Solving for rho, Initial residual = 0, Final residual = 0, No Iterations 0
time step continuity errors : sum local = 1.51243e-16, global = 1.10177e-17, cumulative = 1.21535e-14
ExecutionTime = 2.26 s  ClockTime = 2 s

Courant Number mean: 0.020322 max: 0.0332087
Time = 0.00995

PIMPLE: iteration 1
diagonal:  Solving for rho, Initial residual = 0, Final residual = 0, No Iterations 0
smoothSolver:  Solving for Ux, Initial residual = 0.000390713, Final residual = 3.70058e-17, No Iterations 1
smoothSolver:  Solving for e, Initial residual = 0.000807542, Final residual = 3.19197e-17, No Iterations 4
smoothSolver:  Solving for p, Initial residual = 0.000394465, Final residual = 3.18779e-16, No Iterations 2
diagonal:  Solving for rho, Initial residual = 0, Final residual = 0, No Iterations 0
time step continuity errors : sum local = 2.96522e-16, global = -2.6647e-16, cumulative = 1.1887e-14
smoothSolver:  Solving for p, Initial residual = 1.09497e-06, Final residual = 8.04384e-17, No Iterations 2
diagonal:  Solving for rho, Initial residual = 0, Final residual = 0, No Iterations 0
time step continuity errors : sum local = 1.39245e-16, global = -3.00529e-18, cumulative = 1.1884e-14
PIMPLE: iteration 2
smoothSolver:  Solving for Ux, Initial residual = 2.30571e-07, Final residual = 3.75322e-17, No Iterations 1
smoothSolver:  Solving for e, Initial residual = 4.38037e-06, Final residual = 4.0422e-17, No Iterations 3
smoothSolver:  Solving for p, Initial residual = 1.24038e-06, Final residual = 7.45313e-17, No Iterations 2
diagonal:  Solving for rho, Initial residual = 0, Final residual = 0, No Iterations 0
time step continuity errors : sum local = 1.50265e-16, global = -4.20741e-17, cumulative = 1.18419e-14
smoothSolver:  Solving for p, Initial residual = 1.89613e-08, Final residual = 7.37828e-17, No Iterations 2
diagonal:  Solving for rho, Initial residual = 0, Final residual = 0, No Iterations 0
time step continuity errors : sum local = 1.58279e-16, global = -1.00176e-17, cumulative = 1.18319e-14
ExecutionTime = 2.27 s  ClockTime = 2 s

Courant Number mean: 0.0203273 max: 0.0331292
Time = 0.00996

PIMPLE: iteration 1
diagonal:  Solving for rho, Initial residual = 0, Final residual = 0, No Iterations 0
smoothSolver:  Solving for Ux, Initial residual = 0.000389611, Final residual = 3.93529e-17, No Iterations 1
smoothSolver:  Solving for e, Initial residual = 0.000804998, Final residual = 4.01007e-17, No Iterations 4
smoothSolver:  Solving for p, Initial residual = 0.00039499, Final residual = 3.1077e-16, No Iterations 2
diagonal:  Solving for rho, Initial residual = 0, Final residual = 0, No Iterations 0
time step continuity errors : sum local = 2.7653e-16, global = -1.96376e-16, cumulative = 1.16355e-14
smoothSolver:  Solving for p, Initial residual = 1.10098e-06, Final residual = 7.41417e-17, No Iterations 2
diagonal:  Solving for rho, Initial residual = 0, Final residual = 0, No Iterations 0
time step continuity errors : sum local = 1.66318e-16, global = 2.4046e-17, cumulative = 1.16596e-14
PIMPLE: iteration 2
smoothSolver:  Solving for Ux, Initial residual = 2.24876e-07, Final residual = 3.96259e-17, No Iterations 1
smoothSolver:  Solving for e, Initial residual = 4.30514e-06, Final residual = 4.75642e-17, No Iterations 3
smoothSolver:  Solving for p, Initial residual = 1.22178e-06, Final residual = 6.56793e-17, No Iterations 2
diagonal:  Solving for rho, Initial residual = 0, Final residual = 0, No Iterations 0
time step continuity errors : sum local = 1.73332e-16, global = -3.90748e-17, cumulative = 1.16205e-14
smoothSolver:  Solving for p, Initial residual = 1.8217e-08, Final residual = 6.15743e-17, No Iterations 2
diagonal:  Solving for rho, Initial residual = 0, Final residual = 0, No Iterations 0
time step continuity errors : sum local = 1.81347e-16, global = 7.01343e-18, cumulative = 1.16275e-14
ExecutionTime = 2.27 s  ClockTime = 2 s

Courant Number mean: 0.0203327 max: 0.0330557
Time = 0.00997

PIMPLE: iteration 1
diagonal:  Solving for rho, Initial residual = 0, Final residual = 0, No Iterations 0
smoothSolver:  Solving for Ux, Initial residual = 0.000388538, Final residual = 3.96656e-17, No Iterations 1
smoothSolver:  Solving for e, Initial residual = 0.000802402, Final residual = 3.27776e-17, No Iterations 4
smoothSolver:  Solving for p, Initial residual = 0.000395371, Final residual = 3.1954e-16, No Iterations 2
diagonal:  Solving for rho, Initial residual = 0, Final residual = 0, No Iterations 0
time step continuity errors : sum local = 3.36696e-16, global = -2.34485e-16, cumulative = 1.1393e-14
smoothSolver:  Solving for p, Initial residual = 1.10302e-06, Final residual = 7.63934e-17, No Iterations 2
diagonal:  Solving for rho, Initial residual = 0, Final residual = 0, No Iterations 0
time step continuity errors : sum local = 1.44298e-16, global = 4.40912e-17, cumulative = 1.14371e-14
PIMPLE: iteration 2
smoothSolver:  Solving for Ux, Initial residual = 2.19487e-07, Final residual = 4.37974e-17, No Iterations 1
smoothSolver:  Solving for e, Initial residual = 4.3068e-06, Final residual = 3.89668e-17, No Iterations 3
smoothSolver:  Solving for p, Initial residual = 1.23207e-06, Final residual = 6.71075e-17, No Iterations 2
diagonal:  Solving for rho, Initial residual = 0, Final residual = 0, No Iterations 0
time step continuity errors : sum local = 1.25259e-16, global = -3.30684e-17, cumulative = 1.1404e-14
smoothSolver:  Solving for p, Initial residual = 1.75338e-08, Final residual = 6.85399e-17, No Iterations 2
diagonal:  Solving for rho, Initial residual = 0, Final residual = 0, No Iterations 0
time step continuity errors : sum local = 1.48307e-16, global = 1.20249e-17, cumulative = 1.14161e-14
ExecutionTime = 2.27 s  ClockTime = 2 s

Courant Number mean: 0.0203381 max: 0.0329882
Time = 0.00998

PIMPLE: iteration 1
diagonal:  Solving for rho, Initial residual = 0, Final residual = 0, No Iterations 0
smoothSolver:  Solving for Ux, Initial residual = 0.000387496, Final residual = 3.62e-17, No Iterations 1
smoothSolver:  Solving for e, Initial residual = 0.000799797, Final residual = 3.57195e-17, No Iterations 4
smoothSolver:  Solving for p, Initial residual = 0.000395651, Final residual = 3.06199e-16, No Iterations 2
diagonal:  Solving for rho, Initial residual = 0, Final residual = 0, No Iterations 0
time step continuity errors : sum local = 3.1069e-16, global = -2.50556e-16, cumulative = 1.11655e-14
smoothSolver:  Solving for p, Initial residual = 1.10143e-06, Final residual = 7.43565e-17, No Iterations 2
diagonal:  Solving for rho, Initial residual = 0, Final residual = 0, No Iterations 0
time step continuity errors : sum local = 1.44821e-16, global = -3.5579e-17, cumulative = 1.11299e-14
PIMPLE: iteration 2
smoothSolver:  Solving for Ux, Initial residual = 2.14433e-07, Final residual = 3.81084e-17, No Iterations 1
smoothSolver:  Solving for e, Initial residual = 4.24545e-06, Final residual = 4.1387e-17, No Iterations 3
smoothSolver:  Solving for p, Initial residual = 1.21893e-06, Final residual = 7.13479e-17, No Iterations 2
diagonal:  Solving for rho, Initial residual = 0, Final residual = 0, No Iterations 0
time step continuity errors : sum local = 1.18764e-16, global = -8.51891e-18, cumulative = 1.11214e-14
smoothSolver:  Solving for p, Initial residual = 1.6857e-08, Final residual = 6.30045e-17, No Iterations 2
diagonal:  Solving for rho, Initial residual = 0, Final residual = 0, No Iterations 0
time step continuity errors : sum local = 1.41314e-16, global = -1.00222e-18, cumulative = 1.11204e-14
ExecutionTime = 2.27 s  ClockTime = 2 s

Courant Number mean: 0.0203435 max: 0.0329264
Time = 0.00999

PIMPLE: iteration 1
diagonal:  Solving for rho, Initial residual = 0, Final residual = 0, No Iterations 0
smoothSolver:  Solving for Ux, Initial residual = 0.000386489, Final residual = 3.89666e-17, No Iterations 1
smoothSolver:  Solving for e, Initial residual = 0.000797143, Final residual = 2.9955e-17, No Iterations 4
smoothSolver:  Solving for p, Initial residual = 0.000395891, Final residual = 3.16828e-16, No Iterations 2
diagonal:  Solving for rho, Initial residual = 0, Final residual = 0, No Iterations 0
time step continuity errors : sum local = 3.24269e-16, global = -2.33053e-16, cumulative = 1.08874e-14
smoothSolver:  Solving for p, Initial residual = 1.0966e-06, Final residual = 6.88759e-17, No Iterations 2
diagonal:  Solving for rho, Initial residual = 0, Final residual = 0, No Iterations 0
time step continuity errors : sum local = 1.47349e-16, global = 2.10499e-17, cumulative = 1.09084e-14
PIMPLE: iteration 2
smoothSolver:  Solving for Ux, Initial residual = 2.09707e-07, Final residual = 4.37642e-17, No Iterations 1
smoothSolver:  Solving for e, Initial residual = 4.19043e-06, Final residual = 4.36352e-17, No Iterations 3
smoothSolver:  Solving for p, Initial residual = 1.20132e-06, Final residual = 7.15725e-17, No Iterations 2
diagonal:  Solving for rho, Initial residual = 0, Final residual = 0, No Iterations 0
time step continuity errors : sum local = 1.51359e-16, global = 3.00713e-18, cumulative = 1.09114e-14
smoothSolver:  Solving for p, Initial residual = 1.63352e-08, Final residual = 7.52953e-17, No Iterations 2
diagonal:  Solving for rho, Initial residual = 0, Final residual = 0, No Iterations 0
time step continuity errors : sum local = 1.40834e-16, global = -1.45345e-17, cumulative = 1.08969e-14
ExecutionTime = 2.28 s  ClockTime = 2 s

Courant Number mean: 0.020349 max: 0.03287
Time = 0.01

PIMPLE: iteration 1
diagonal:  Solving for rho, Initial residual = 0, Final residual = 0, No Iterations 0
smoothSolver:  Solving for Ux, Initial residual = 0.000385517, Final residual = 4.05193e-17, No Iterations 1
smoothSolver:  Solving for e, Initial residual = 0.000794527, Final residual = 3.68463e-17, No Iterations 4
smoothSolver:  Solving for p, Initial residual = 0.000395992, Final residual = 3.25191e-16, No Iterations 2
diagonal:  Solving for rho, Initial residual = 0, Final residual = 0, No Iterations 0
time step continuity errors : sum local = 3.21812e-16, global = -2.31584e-16, cumulative = 1.06653e-14
smoothSolver:  Solving for p, Initial residual = 1.08807e-06, Final residual = 7.58532e-17, No Iterations 2
diagonal:  Solving for rho, Initial residual = 0, Final residual = 0, No Iterations 0
time step continuity errors : sum local = 1.41356e-16, global = -7.0177e-18, cumulative = 1.06583e-14
PIMPLE: iteration 2
smoothSolver:  Solving for Ux, Initial residual = 2.05314e-07, Final residual = 3.64728e-17, No Iterations 1
smoothSolver:  Solving for e, Initial residual = 4.54002e-06, Final residual = 4.29016e-17, No Iterations 3
smoothSolver:  Solving for p, Initial residual = 1.27475e-06, Final residual = 7.1115e-17, No Iterations 2
diagonal:  Solving for rho, Initial residual = 0, Final residual = 0, No Iterations 0
time step continuity errors : sum local = 1.45868e-16, global = -3.25822e-17, cumulative = 1.06257e-14
smoothSolver:  Solving for p, Initial residual = 1.87549e-08, Final residual = 7.68209e-17, No Iterations 2
diagonal:  Solving for rho, Initial residual = 0, Final residual = 0, No Iterations 0
time step continuity errors : sum local = 1.35843e-16, global = 1.75442e-17, cumulative = 1.06432e-14
ExecutionTime = 2.28 s  ClockTime = 2 s

    functionObjects::mag mag(U) writing field: mag(U)
End

