/*---------------------------------------------------------------------------*\
| =========                 |                                                 |
| \\      /  F ield         | OpenFOAM: The Open Source CFD Toolbox           |
|  \\    /   O peration     | Version:  2012                                  |
|   \\  /    A nd           | Website:  www.openfoam.com                      |
|    \\/     M anipulation  |                                                 |
\*---------------------------------------------------------------------------*/
Build  : _269d0ffd5c-20210619 OPENFOAM=2012 patch=210618
Arch   : "LSB;label=32;scalar=64"
Exec   : mhdPimpleFoam
Date   : Mar 24 2022
Time   : 11:12:22
Host   : gabrielmarconcini-Lenovo-G50-80
PID    : 45417
I/O    : uncollated
Case   : /home/gabrielmarconcini/Documentos/TCC/PTCC/ShockTube/BrioWuShockTube/ShockTube_1_mhdPimpleFoam
nProcs : 1
trapFpe: Floating point exception trapping enabled (FOAM_SIGFPE).
fileModificationChecking : Monitoring run-time modified files using timeStampMaster (fileModificationSkew 5, maxFileModificationPolls 20)
allowSystemOperations : Allowing user-supplied system call operations

// * * * * * * * * * * * * * * * * * * * * * * * * * * * * * * * * * * * * * //
Create time

Create mesh for time = 0


PIMPLE: Operating solver in PISO mode

Reading thermophysical properties

Selecting thermodynamics package 
{
    type            hePsiThermo;
    mixture         pureMixture;
    transport       const;
    thermo          eConst;
    equationOfState perfectGas;
    specie          specie;
    energy          sensibleInternalEnergy;
}

Reading field U

Reading/calculating face flux field phi

Creating turbulence model

Selecting turbulence model type laminar
Selecting laminar stress model Stokes
Creating field dpdt

Creating field kinetic energy K

No MRF models present

No finite volume options present
Courant Number mean: 0 max: 0

Starting time loop

Courant Number mean: 0 max: 0
Time = 1e-05

PIMPLE: iteration 1
diagonal:  Solving for rho, Initial residual = 0, Final residual = 0, No Iterations 0
smoothSolver:  Solving for Ux, Initial residual = 1, Final residual = 0, No Iterations 1
smoothSolver:  Solving for e, Initial residual = 5.71873e-17, Final residual = 5.71873e-17, No Iterations 0
smoothSolver:  Solving for p, Initial residual = 1.78207e-05, Final residual = 1.74233e-17, No Iterations 2
diagonal:  Solving for rho, Initial residual = 0, Final residual = 0, No Iterations 0
time step continuity errors : sum local = 1.22669e-16, global = 9.89265e-18, cumulative = 9.89265e-18
ExecutionTime = 0.11 s  ClockTime = 1 s

Courant Number mean: 4.03386e-05 max: 0.00357938
Time = 2e-05

PIMPLE: iteration 1
diagonal:  Solving for rho, Initial residual = 0, Final residual = 0, No Iterations 0
smoothSolver:  Solving for Ux, Initial residual = 0.126773, Final residual = 2.63255e-17, No Iterations 1
smoothSolver:  Solving for e, Initial residual = 8.06184e-05, Final residual = 4.91173e-17, No Iterations 1
smoothSolver:  Solving for p, Initial residual = 5.03855e-05, Final residual = 4.79668e-17, No Iterations 2
diagonal:  Solving for rho, Initial residual = 0, Final residual = 0, No Iterations 0
time step continuity errors : sum local = 2.26542e-16, global = 1.08819e-17, cumulative = 2.07746e-17
ExecutionTime = 0.11 s  ClockTime = 1 s

Courant Number mean: 0.000119728 max: 0.00970171
Time = 3e-05

PIMPLE: iteration 1
diagonal:  Solving for rho, Initial residual = 0, Final residual = 0, No Iterations 0
smoothSolver:  Solving for Ux, Initial residual = 0.0673299, Final residual = 1.49313e-17, No Iterations 1
smoothSolver:  Solving for e, Initial residual = 0.000203571, Final residual = 4.08598e-17, No Iterations 2
smoothSolver:  Solving for p, Initial residual = 9.59772e-05, Final residual = 8.28537e-17, No Iterations 2
diagonal:  Solving for rho, Initial residual = 0, Final residual = 0, No Iterations 0
time step continuity errors : sum local = 1.94638e-16, global = -8.03778e-17, cumulative = -5.96032e-17
ExecutionTime = 0.12 s  ClockTime = 1 s

Courant Number mean: 0.000197316 max: 0.0156289
Time = 4e-05

PIMPLE: iteration 1
diagonal:  Solving for rho, Initial residual = 0, Final residual = 0, No Iterations 0
smoothSolver:  Solving for Ux, Initial residual = 0.0456058, Final residual = 2.57503e-17, No Iterations 1
smoothSolver:  Solving for e, Initial residual = 0.000359752, Final residual = 2.70453e-16, No Iterations 2
smoothSolver:  Solving for p, Initial residual = 0.000140729, Final residual = 1.20864e-16, No Iterations 2
diagonal:  Solving for rho, Initial residual = 0, Final residual = 0, No Iterations 0
time step continuity errors : sum local = 2.70564e-16, global = -1.08324e-16, cumulative = -1.67928e-16
ExecutionTime = 0.13 s  ClockTime = 1 s

Courant Number mean: 0.000257083 max: 0.02035
Time = 5e-05

PIMPLE: iteration 1
diagonal:  Solving for rho, Initial residual = 0, Final residual = 0, No Iterations 0
smoothSolver:  Solving for Ux, Initial residual = 0.0342943, Final residual = 5.59269e-18, No Iterations 1
smoothSolver:  Solving for e, Initial residual = 0.000502921, Final residual = 1.483e-17, No Iterations 3
smoothSolver:  Solving for p, Initial residual = 0.000181532, Final residual = 1.51273e-16, No Iterations 2
diagonal:  Solving for rho, Initial residual = 0, Final residual = 0, No Iterations 0
time step continuity errors : sum local = 3.21016e-16, global = -1.25637e-16, cumulative = -2.93564e-16
ExecutionTime = 0.13 s  ClockTime = 1 s

Courant Number mean: 0.000315625 max: 0.0245421
Time = 6e-05

PIMPLE: iteration 1
diagonal:  Solving for rho, Initial residual = 0, Final residual = 0, No Iterations 0
smoothSolver:  Solving for Ux, Initial residual = 0.0274161, Final residual = 7.25214e-18, No Iterations 1
smoothSolver:  Solving for e, Initial residual = 0.000628267, Final residual = 1.40209e-17, No Iterations 3
smoothSolver:  Solving for p, Initial residual = 0.000217765, Final residual = 1.80058e-16, No Iterations 2
diagonal:  Solving for rho, Initial residual = 0, Final residual = 0, No Iterations 0
time step continuity errors : sum local = 3.68006e-16, global = -1.15744e-16, cumulative = -4.09308e-16
ExecutionTime = 0.13 s  ClockTime = 1 s

Courant Number mean: 0.000361111 max: 0.0276779
Time = 7e-05

PIMPLE: iteration 1
diagonal:  Solving for rho, Initial residual = 0, Final residual = 0, No Iterations 0
smoothSolver:  Solving for Ux, Initial residual = 0.0227609, Final residual = 1.11582e-17, No Iterations 1
smoothSolver:  Solving for e, Initial residual = 0.000732377, Final residual = 1.68142e-17, No Iterations 3
smoothSolver:  Solving for p, Initial residual = 0.000249078, Final residual = 2.04507e-16, No Iterations 2
diagonal:  Solving for rho, Initial residual = 0, Final residual = 0, No Iterations 0
time step continuity errors : sum local = 4.07082e-16, global = -1.41465e-16, cumulative = -5.50773e-16
ExecutionTime = 0.13 s  ClockTime = 1 s

Courant Number mean: 0.000400192 max: 0.0300994
Time = 8e-05

PIMPLE: iteration 1
diagonal:  Solving for rho, Initial residual = 0, Final residual = 0, No Iterations 0
smoothSolver:  Solving for Ux, Initial residual = 0.0194528, Final residual = 3.07767e-18, No Iterations 1
smoothSolver:  Solving for e, Initial residual = 0.000814734, Final residual = 4.04074e-17, No Iterations 3
smoothSolver:  Solving for p, Initial residual = 0.00027569, Final residual = 2.27546e-16, No Iterations 2
diagonal:  Solving for rho, Initial residual = 0, Final residual = 0, No Iterations 0
time step continuity errors : sum local = 4.52341e-16, global = -1.51605e-16, cumulative = -7.02378e-16
ExecutionTime = 0.13 s  ClockTime = 1 s

Courant Number mean: 0.000431479 max: 0.0317965
Time = 9e-05

PIMPLE: iteration 1
diagonal:  Solving for rho, Initial residual = 0, Final residual = 0, No Iterations 0
smoothSolver:  Solving for Ux, Initial residual = 0.0169899, Final residual = 2.29747e-18, No Iterations 1
smoothSolver:  Solving for e, Initial residual = 0.000875403, Final residual = 1.65818e-16, No Iterations 3
smoothSolver:  Solving for p, Initial residual = 0.000297906, Final residual = 2.48378e-16, No Iterations 2
diagonal:  Solving for rho, Initial residual = 0, Final residual = 0, No Iterations 0
time step continuity errors : sum local = 4.76826e-16, global = -1.37508e-16, cumulative = -8.39886e-16
ExecutionTime = 0.13 s  ClockTime = 1 s

Courant Number mean: 0.000457152 max: 0.0329312
Time = 0.0001

PIMPLE: iteration 1
diagonal:  Solving for rho, Initial residual = 0, Final residual = 0, No Iterations 0
smoothSolver:  Solving for Ux, Initial residual = 0.0151046, Final residual = 7.11115e-18, No Iterations 1
smoothSolver:  Solving for e, Initial residual = 0.000915917, Final residual = 5.70955e-16, No Iterations 3
smoothSolver:  Solving for p, Initial residual = 0.000316284, Final residual = 2.60847e-16, No Iterations 2
diagonal:  Solving for rho, Initial residual = 0, Final residual = 0, No Iterations 0
time step continuity errors : sum local = 5.1417e-16, global = -1.5111e-16, cumulative = -9.90996e-16
ExecutionTime = 0.13 s  ClockTime = 1 s

Courant Number mean: 0.00047815 max: 0.0336046
Time = 0.00011

PIMPLE: iteration 1
diagonal:  Solving for rho, Initial residual = 0, Final residual = 0, No Iterations 0
smoothSolver:  Solving for Ux, Initial residual = 0.0136251, Final residual = 2.0054e-17, No Iterations 1
smoothSolver:  Solving for e, Initial residual = 0.000942959, Final residual = 1.87069e-17, No Iterations 4
smoothSolver:  Solving for p, Initial residual = 0.000331909, Final residual = 2.73401e-16, No Iterations 2
diagonal:  Solving for rho, Initial residual = 0, Final residual = 0, No Iterations 0
time step continuity errors : sum local = 5.27525e-16, global = -1.40723e-16, cumulative = -1.13172e-15
ExecutionTime = 0.13 s  ClockTime = 1 s

Courant Number mean: 0.000495668 max: 0.0339234
Time = 0.00012

PIMPLE: iteration 1
diagonal:  Solving for rho, Initial residual = 0, Final residual = 0, No Iterations 0
smoothSolver:  Solving for Ux, Initial residual = 0.0124417, Final residual = 7.7448e-18, No Iterations 1
smoothSolver:  Solving for e, Initial residual = 0.000982531, Final residual = 1.91979e-17, No Iterations 4
smoothSolver:  Solving for p, Initial residual = 0.000346874, Final residual = 2.83088e-16, No Iterations 2
diagonal:  Solving for rho, Initial residual = 0, Final residual = 0, No Iterations 0
time step continuity errors : sum local = 5.39644e-16, global = -1.40476e-16, cumulative = -1.27219e-15
ExecutionTime = 0.13 s  ClockTime = 1 s

Courant Number mean: 0.000510589 max: 0.0339712
Time = 0.00013

PIMPLE: iteration 1
diagonal:  Solving for rho, Initial residual = 0, Final residual = 0, No Iterations 0
smoothSolver:  Solving for Ux, Initial residual = 0.0114791, Final residual = 7.40056e-18, No Iterations 1
smoothSolver:  Solving for e, Initial residual = 0.00101041, Final residual = 1.54206e-17, No Iterations 4
smoothSolver:  Solving for p, Initial residual = 0.000359334, Final residual = 2.95159e-16, No Iterations 2
diagonal:  Solving for rho, Initial residual = 0, Final residual = 0, No Iterations 0
time step continuity errors : sum local = 5.52257e-16, global = -1.40228e-16, cumulative = -1.41242e-15
ExecutionTime = 0.13 s  ClockTime = 1 s

Courant Number mean: 0.000523777 max: 0.0338235
Time = 0.00014

PIMPLE: iteration 1
diagonal:  Solving for rho, Initial residual = 0, Final residual = 0, No Iterations 0
smoothSolver:  Solving for Ux, Initial residual = 0.0106678, Final residual = 1.36576e-17, No Iterations 1
smoothSolver:  Solving for e, Initial residual = 0.00102195, Final residual = 2.31539e-16, No Iterations 2
smoothSolver:  Solving for p, Initial residual = 0.000366438, Final residual = 3.01888e-16, No Iterations 2
diagonal:  Solving for rho, Initial residual = 0, Final residual = 0, No Iterations 0
time step continuity errors : sum local = 5.89107e-16, global = -1.58777e-16, cumulative = -1.5712e-15
ExecutionTime = 0.13 s  ClockTime = 1 s

Courant Number mean: 0.000535897 max: 0.0335383
Time = 0.00015

PIMPLE: iteration 1
diagonal:  Solving for rho, Initial residual = 0, Final residual = 0, No Iterations 0
smoothSolver:  Solving for Ux, Initial residual = 0.00997133, Final residual = 1.07309e-17, No Iterations 1
smoothSolver:  Solving for e, Initial residual = 0.00100857, Final residual = 3.77583e-16, No Iterations 2
smoothSolver:  Solving for p, Initial residual = 0.00037228, Final residual = 3.03316e-16, No Iterations 2
diagonal:  Solving for rho, Initial residual = 0, Final residual = 0, No Iterations 0
time step continuity errors : sum local = 5.81935e-16, global = -1.34787e-16, cumulative = -1.70599e-15
ExecutionTime = 0.13 s  ClockTime = 1 s

Courant Number mean: 0.000547328 max: 0.0331525
Time = 0.00016

PIMPLE: iteration 1
diagonal:  Solving for rho, Initial residual = 0, Final residual = 0, No Iterations 0
smoothSolver:  Solving for Ux, Initial residual = 0.00937087, Final residual = 1.15113e-17, No Iterations 1
smoothSolver:  Solving for e, Initial residual = 0.000987988, Final residual = 6.05476e-16, No Iterations 2
smoothSolver:  Solving for p, Initial residual = 0.000376508, Final residual = 3.06159e-16, No Iterations 2
diagonal:  Solving for rho, Initial residual = 0, Final residual = 0, No Iterations 0
time step continuity errors : sum local = 5.87871e-16, global = -1.34293e-16, cumulative = -1.84028e-15
ExecutionTime = 0.14 s  ClockTime = 1 s

Courant Number mean: 0.000558517 max: 0.0327025
Time = 0.00017

PIMPLE: iteration 1
diagonal:  Solving for rho, Initial residual = 0, Final residual = 0, No Iterations 0
smoothSolver:  Solving for Ux, Initial residual = 0.00885207, Final residual = 2.34984e-17, No Iterations 1
smoothSolver:  Solving for e, Initial residual = 0.000961826, Final residual = 9.53852e-16, No Iterations 2
smoothSolver:  Solving for p, Initial residual = 0.000379382, Final residual = 3.09107e-16, No Iterations 2
diagonal:  Solving for rho, Initial residual = 0, Final residual = 0, No Iterations 0
time step continuity errors : sum local = 6.03204e-16, global = -1.39239e-16, cumulative = -1.97952e-15
ExecutionTime = 0.14 s  ClockTime = 1 s

Courant Number mean: 0.000569782 max: 0.0322136
Time = 0.00018

PIMPLE: iteration 1
diagonal:  Solving for rho, Initial residual = 0, Final residual = 0, No Iterations 0
smoothSolver:  Solving for Ux, Initial residual = 0.00839852, Final residual = 1.15108e-17, No Iterations 1
smoothSolver:  Solving for e, Initial residual = 0.000931439, Final residual = 1.20974e-17, No Iterations 3
smoothSolver:  Solving for p, Initial residual = 0.000381119, Final residual = 3.11757e-16, No Iterations 2
diagonal:  Solving for rho, Initial residual = 0, Final residual = 0, No Iterations 0
time step continuity errors : sum local = 5.97021e-16, global = -1.28604e-16, cumulative = -2.10812e-15
ExecutionTime = 0.14 s  ClockTime = 1 s

Courant Number mean: 0.000581379 max: 0.0317055
Time = 0.00019

PIMPLE: iteration 1
diagonal:  Solving for rho, Initial residual = 0, Final residual = 0, No Iterations 0
smoothSolver:  Solving for Ux, Initial residual = 0.00799718, Final residual = 6.64849e-18, No Iterations 1
smoothSolver:  Solving for e, Initial residual = 0.000898026, Final residual = 1.60521e-17, No Iterations 3
smoothSolver:  Solving for p, Initial residual = 0.000381912, Final residual = 3.08641e-16, No Iterations 2
diagonal:  Solving for rho, Initial residual = 0, Final residual = 0, No Iterations 0
time step continuity errors : sum local = 5.81193e-16, global = -1.38497e-16, cumulative = -2.24662e-15
ExecutionTime = 0.14 s  ClockTime = 1 s

Courant Number mean: 0.000593362 max: 0.0311927
Time = 0.0002

PIMPLE: iteration 1
diagonal:  Solving for rho, Initial residual = 0, Final residual = 0, No Iterations 0
smoothSolver:  Solving for Ux, Initial residual = 0.00763902, Final residual = 1.03463e-17, No Iterations 1
smoothSolver:  Solving for e, Initial residual = 0.000862215, Final residual = 1.67949e-17, No Iterations 3
smoothSolver:  Solving for p, Initial residual = 0.000381946, Final residual = 3.07222e-16, No Iterations 2
diagonal:  Solving for rho, Initial residual = 0, Final residual = 0, No Iterations 0
time step continuity errors : sum local = 5.87376e-16, global = -1.21927e-16, cumulative = -2.36855e-15
ExecutionTime = 0.14 s  ClockTime = 1 s

Courant Number mean: 0.000605702 max: 0.0306859
Time = 0.00021

PIMPLE: iteration 1
diagonal:  Solving for rho, Initial residual = 0, Final residual = 0, No Iterations 0
smoothSolver:  Solving for Ux, Initial residual = 0.00731741, Final residual = 1.06496e-17, No Iterations 1
smoothSolver:  Solving for e, Initial residual = 0.000824765, Final residual = 1.35373e-17, No Iterations 3
smoothSolver:  Solving for p, Initial residual = 0.000381383, Final residual = 3.0425e-16, No Iterations 2
diagonal:  Solving for rho, Initial residual = 0, Final residual = 0, No Iterations 0
time step continuity errors : sum local = 5.70064e-16, global = -1.14013e-16, cumulative = -2.48256e-15
ExecutionTime = 0.14 s  ClockTime = 1 s

Courant Number mean: 0.000618355 max: 0.0301928
Time = 0.00022

PIMPLE: iteration 1
diagonal:  Solving for rho, Initial residual = 0, Final residual = 0, No Iterations 0
smoothSolver:  Solving for Ux, Initial residual = 0.0070272, Final residual = 4.61472e-18, No Iterations 1
smoothSolver:  Solving for e, Initial residual = 0.000786872, Final residual = 1.89453e-17, No Iterations 3
smoothSolver:  Solving for p, Initial residual = 0.000380358, Final residual = 3.06519e-16, No Iterations 2
diagonal:  Solving for rho, Initial residual = 0, Final residual = 0, No Iterations 0
time step continuity errors : sum local = 5.83914e-16, global = -1.46659e-16, cumulative = -2.62922e-15
ExecutionTime = 0.14 s  ClockTime = 1 s

Courant Number mean: 0.000631293 max: 0.029719
Time = 0.00023

PIMPLE: iteration 1
diagonal:  Solving for rho, Initial residual = 0, Final residual = 0, No Iterations 0
smoothSolver:  Solving for Ux, Initial residual = 0.00676411, Final residual = 1.17558e-17, No Iterations 1
smoothSolver:  Solving for e, Initial residual = 0.000749384, Final residual = 1.60764e-17, No Iterations 3
smoothSolver:  Solving for p, Initial residual = 0.000378973, Final residual = 3.00436e-16, No Iterations 2
diagonal:  Solving for rho, Initial residual = 0, Final residual = 0, No Iterations 0
time step continuity errors : sum local = 5.77731e-16, global = -1.29594e-16, cumulative = -2.75881e-15
ExecutionTime = 0.14 s  ClockTime = 1 s

Courant Number mean: 0.000644516 max: 0.029268
Time = 0.00024

PIMPLE: iteration 1
diagonal:  Solving for rho, Initial residual = 0, Final residual = 0, No Iterations 0
smoothSolver:  Solving for Ux, Initial residual = 0.00652447, Final residual = 7.68569e-18, No Iterations 1
smoothSolver:  Solving for e, Initial residual = 0.000715155, Final residual = 1.23553e-17, No Iterations 3
smoothSolver:  Solving for p, Initial residual = 0.000377365, Final residual = 2.97453e-16, No Iterations 2
diagonal:  Solving for rho, Initial residual = 0, Final residual = 0, No Iterations 0
time step continuity errors : sum local = 5.85892e-16, global = -1.34787e-16, cumulative = -2.8936e-15
ExecutionTime = 0.14 s  ClockTime = 1 s

Courant Number mean: 0.000658041 max: 0.028842
Time = 0.00025

PIMPLE: iteration 1
diagonal:  Solving for rho, Initial residual = 0, Final residual = 0, No Iterations 0
smoothSolver:  Solving for Ux, Initial residual = 0.00639954, Final residual = 8.66754e-18, No Iterations 1
smoothSolver:  Solving for e, Initial residual = 0.000722177, Final residual = 1.26245e-17, No Iterations 3
smoothSolver:  Solving for p, Initial residual = 0.000378911, Final residual = 2.96223e-16, No Iterations 2
diagonal:  Solving for rho, Initial residual = 0, Final residual = 0, No Iterations 0
time step continuity errors : sum local = 5.54236e-16, global = -1.16486e-16, cumulative = -3.01009e-15
ExecutionTime = 0.14 s  ClockTime = 1 s

Courant Number mean: 0.000671842 max: 0.0284398
Time = 0.00026

PIMPLE: iteration 1
diagonal:  Solving for rho, Initial residual = 0, Final residual = 0, No Iterations 0
smoothSolver:  Solving for Ux, Initial residual = 0.00628486, Final residual = 8.4487e-18, No Iterations 1
smoothSolver:  Solving for e, Initial residual = 0.000728643, Final residual = 1.7294e-17, No Iterations 3
smoothSolver:  Solving for p, Initial residual = 0.000380018, Final residual = 2.99674e-16, No Iterations 2
diagonal:  Solving for rho, Initial residual = 0, Final residual = 0, No Iterations 0
time step continuity errors : sum local = 5.713e-16, global = -1.26131e-16, cumulative = -3.13622e-15
ExecutionTime = 0.14 s  ClockTime = 1 s

Courant Number mean: 0.000686012 max: 0.0280645
Time = 0.00027

PIMPLE: iteration 1
diagonal:  Solving for rho, Initial residual = 0, Final residual = 0, No Iterations 0
smoothSolver:  Solving for Ux, Initial residual = 0.00617182, Final residual = 1.15922e-17, No Iterations 1
smoothSolver:  Solving for e, Initial residual = 0.000734718, Final residual = 1.71765e-17, No Iterations 3
smoothSolver:  Solving for p, Initial residual = 0.000380725, Final residual = 3.00758e-16, No Iterations 2
diagonal:  Solving for rho, Initial residual = 0, Final residual = 0, No Iterations 0
time step continuity errors : sum local = 5.57451e-16, global = -1.20196e-16, cumulative = -3.25641e-15
ExecutionTime = 0.14 s  ClockTime = 1 s

Courant Number mean: 0.000700574 max: 0.0277161
Time = 0.00028

PIMPLE: iteration 1
diagonal:  Solving for rho, Initial residual = 0, Final residual = 0, No Iterations 0
smoothSolver:  Solving for Ux, Initial residual = 0.00606084, Final residual = 1.77799e-17, No Iterations 1
smoothSolver:  Solving for e, Initial residual = 0.000740449, Final residual = 1.54076e-17, No Iterations 3
smoothSolver:  Solving for p, Initial residual = 0.000381074, Final residual = 2.96228e-16, No Iterations 2
diagonal:  Solving for rho, Initial residual = 0, Final residual = 0, No Iterations 0
time step continuity errors : sum local = 5.55225e-16, global = -1.29841e-16, cumulative = -3.38625e-15
ExecutionTime = 0.15 s  ClockTime = 1 s

Courant Number mean: 0.000715543 max: 0.0273947
Time = 0.00029

PIMPLE: iteration 1
diagonal:  Solving for rho, Initial residual = 0, Final residual = 0, No Iterations 0
smoothSolver:  Solving for Ux, Initial residual = 0.00595218, Final residual = 5.33226e-18, No Iterations 1
smoothSolver:  Solving for e, Initial residual = 0.000745894, Final residual = 2.05735e-17, No Iterations 3
smoothSolver:  Solving for p, Initial residual = 0.000381092, Final residual = 2.95204e-16, No Iterations 2
diagonal:  Solving for rho, Initial residual = 0, Final residual = 0, No Iterations 0
time step continuity errors : sum local = 5.68085e-16, global = -1.12034e-16, cumulative = -3.49829e-15
ExecutionTime = 0.15 s  ClockTime = 1 s

Courant Number mean: 0.00073093 max: 0.0270998
Time = 0.0003

PIMPLE: iteration 1
diagonal:  Solving for rho, Initial residual = 0, Final residual = 0, No Iterations 0
smoothSolver:  Solving for Ux, Initial residual = 0.00584601, Final residual = 9.14415e-18, No Iterations 1
smoothSolver:  Solving for e, Initial residual = 0.000751112, Final residual = 1.89371e-17, No Iterations 3
smoothSolver:  Solving for p, Initial residual = 0.000380795, Final residual = 2.94093e-16, No Iterations 2
diagonal:  Solving for rho, Initial residual = 0, Final residual = 0, No Iterations 0
time step continuity errors : sum local = 5.75752e-16, global = -1.10303e-16, cumulative = -3.60859e-15
ExecutionTime = 0.15 s  ClockTime = 1 s

Courant Number mean: 0.000746732 max: 0.0268308
Time = 0.00031

PIMPLE: iteration 1
diagonal:  Solving for rho, Initial residual = 0, Final residual = 0, No Iterations 0
smoothSolver:  Solving for Ux, Initial residual = 0.00574249, Final residual = 3.35582e-18, No Iterations 1
smoothSolver:  Solving for e, Initial residual = 0.000756144, Final residual = 1.68368e-17, No Iterations 3
smoothSolver:  Solving for p, Initial residual = 0.000380203, Final residual = 2.91586e-16, No Iterations 2
diagonal:  Solving for rho, Initial residual = 0, Final residual = 0, No Iterations 0
time step continuity errors : sum local = 5.483e-16, global = -1.12034e-16, cumulative = -3.72062e-15
ExecutionTime = 0.15 s  ClockTime = 1 s

Courant Number mean: 0.000762928 max: 0.0265871
Time = 0.00032

PIMPLE: iteration 1
diagonal:  Solving for rho, Initial residual = 0, Final residual = 0, No Iterations 0
smoothSolver:  Solving for Ux, Initial residual = 0.0056393, Final residual = 6.90992e-18, No Iterations 1
smoothSolver:  Solving for e, Initial residual = 0.000761032, Final residual = 2.06187e-17, No Iterations 3
smoothSolver:  Solving for p, Initial residual = 0.000379339, Final residual = 2.89785e-16, No Iterations 2
diagonal:  Solving for rho, Initial residual = 0, Final residual = 0, No Iterations 0
time step continuity errors : sum local = 5.64128e-16, global = -9.22489e-17, cumulative = -3.81287e-15
ExecutionTime = 0.15 s  ClockTime = 1 s

Courant Number mean: 0.000779491 max: 0.0263681
Time = 0.00033

PIMPLE: iteration 1
diagonal:  Solving for rho, Initial residual = 0, Final residual = 0, No Iterations 0
smoothSolver:  Solving for Ux, Initial residual = 0.00553624, Final residual = 1.04773e-17, No Iterations 1
smoothSolver:  Solving for e, Initial residual = 0.000765816, Final residual = 1.83325e-17, No Iterations 3
smoothSolver:  Solving for p, Initial residual = 0.000378221, Final residual = 2.87601e-16, No Iterations 2
diagonal:  Solving for rho, Initial residual = 0, Final residual = 0, No Iterations 0
time step continuity errors : sum local = 5.46074e-16, global = -1.2069e-16, cumulative = -3.93356e-15
ExecutionTime = 0.15 s  ClockTime = 1 s

Courant Number mean: 0.000796393 max: 0.0261731
Time = 0.00034

PIMPLE: iteration 1
diagonal:  Solving for rho, Initial residual = 0, Final residual = 0, No Iterations 0
smoothSolver:  Solving for Ux, Initial residual = 0.00543247, Final residual = 6.73488e-18, No Iterations 1
smoothSolver:  Solving for e, Initial residual = 0.000770529, Final residual = 1.41437e-17, No Iterations 3
smoothSolver:  Solving for p, Initial residual = 0.000376877, Final residual = 2.85628e-16, No Iterations 2
diagonal:  Solving for rho, Initial residual = 0, Final residual = 0, No Iterations 0
time step continuity errors : sum local = 5.56956e-16, global = -1.08819e-16, cumulative = -4.04238e-15
ExecutionTime = 0.15 s  ClockTime = 1 s

Courant Number mean: 0.00081361 max: 0.0260015
Time = 0.00035

PIMPLE: iteration 1
diagonal:  Solving for rho, Initial residual = 0, Final residual = 0, No Iterations 0
smoothSolver:  Solving for Ux, Initial residual = 0.00533093, Final residual = 7.45734e-18, No Iterations 1
smoothSolver:  Solving for e, Initial residual = 0.000775223, Final residual = 1.96529e-17, No Iterations 3
smoothSolver:  Solving for p, Initial residual = 0.000375327, Final residual = 2.85088e-16, No Iterations 2
diagonal:  Solving for rho, Initial residual = 0, Final residual = 0, No Iterations 0
time step continuity errors : sum local = 5.47063e-16, global = -1.24153e-16, cumulative = -4.16654e-15
ExecutionTime = 0.15 s  ClockTime = 1 s

Courant Number mean: 0.000831119 max: 0.0258527
Time = 0.00036

PIMPLE: iteration 1
diagonal:  Solving for rho, Initial residual = 0, Final residual = 0, No Iterations 0
smoothSolver:  Solving for Ux, Initial residual = 0.00523217, Final residual = 1.40961e-17, No Iterations 1
smoothSolver:  Solving for e, Initial residual = 0.000779957, Final residual = 2.06457e-17, No Iterations 3
smoothSolver:  Solving for p, Initial residual = 0.00037358, Final residual = 2.86161e-16, No Iterations 2
diagonal:  Solving for rho, Initial residual = 0, Final residual = 0, No Iterations 0
time step continuity errors : sum local = 5.43848e-16, global = -1.14013e-16, cumulative = -4.28055e-15
ExecutionTime = 0.15 s  ClockTime = 1 s

Courant Number mean: 0.000848903 max: 0.0257261
Time = 0.00037

PIMPLE: iteration 1
diagonal:  Solving for rho, Initial residual = 0, Final residual = 0, No Iterations 0
smoothSolver:  Solving for Ux, Initial residual = 0.00513624, Final residual = 5.10851e-18, No Iterations 1
smoothSolver:  Solving for e, Initial residual = 0.000784741, Final residual = 2.00927e-17, No Iterations 3
smoothSolver:  Solving for p, Initial residual = 0.000371653, Final residual = 2.8258e-16, No Iterations 2
diagonal:  Solving for rho, Initial residual = 0, Final residual = 0, No Iterations 0
time step continuity errors : sum local = 5.27278e-16, global = -1.06841e-16, cumulative = -4.38739e-15
ExecutionTime = 0.15 s  ClockTime = 1 s

Courant Number mean: 0.000866949 max: 0.0256212
Time = 0.00038

PIMPLE: iteration 1
diagonal:  Solving for rho, Initial residual = 0, Final residual = 0, No Iterations 0
smoothSolver:  Solving for Ux, Initial residual = 0.0050431, Final residual = 1.55097e-17, No Iterations 1
smoothSolver:  Solving for e, Initial residual = 0.000791907, Final residual = 1.58214e-16, No Iterations 3
smoothSolver:  Solving for p, Initial residual = 0.000369551, Final residual = 2.7948e-16, No Iterations 2
diagonal:  Solving for rho, Initial residual = 0, Final residual = 0, No Iterations 0
time step continuity errors : sum local = 5.12686e-16, global = -1.01647e-16, cumulative = -4.48904e-15
ExecutionTime = 0.15 s  ClockTime = 1 s

Courant Number mean: 0.000885243 max: 0.0255379
Time = 0.00039

PIMPLE: iteration 1
diagonal:  Solving for rho, Initial residual = 0, Final residual = 0, No Iterations 0
smoothSolver:  Solving for Ux, Initial residual = 0.004953, Final residual = 1.33909e-17, No Iterations 1
smoothSolver:  Solving for e, Initial residual = 0.000800284, Final residual = 1.6256e-16, No Iterations 3
smoothSolver:  Solving for p, Initial residual = 0.000367292, Final residual = 2.79037e-16, No Iterations 2
diagonal:  Solving for rho, Initial residual = 0, Final residual = 0, No Iterations 0
time step continuity errors : sum local = 5.2159e-16, global = -1.17475e-16, cumulative = -4.60651e-15
ExecutionTime = 0.16 s  ClockTime = 1 s

Courant Number mean: 0.000903788 max: 0.0254754
Time = 0.0004

PIMPLE: iteration 1
diagonal:  Solving for rho, Initial residual = 0, Final residual = 0, No Iterations 0
smoothSolver:  Solving for Ux, Initial residual = 0.00486579, Final residual = 1.33571e-17, No Iterations 1
smoothSolver:  Solving for e, Initial residual = 0.000812817, Final residual = 1.7285e-16, No Iterations 3
smoothSolver:  Solving for p, Initial residual = 0.000364871, Final residual = 2.75499e-16, No Iterations 2
diagonal:  Solving for rho, Initial residual = 0, Final residual = 0, No Iterations 0
time step continuity errors : sum local = 5.23321e-16, global = -1.03873e-16, cumulative = -4.71038e-15
ExecutionTime = 0.16 s  ClockTime = 1 s

Courant Number mean: 0.000922574 max: 0.0254333
Time = 0.00041

PIMPLE: iteration 1
diagonal:  Solving for rho, Initial residual = 0, Final residual = 0, No Iterations 0
smoothSolver:  Solving for Ux, Initial residual = 0.00478164, Final residual = 1.2655e-17, No Iterations 1
smoothSolver:  Solving for e, Initial residual = 0.000828193, Final residual = 2.05124e-16, No Iterations 3
smoothSolver:  Solving for p, Initial residual = 0.000362308, Final residual = 2.74319e-16, No Iterations 2
diagonal:  Solving for rho, Initial residual = 0, Final residual = 0, No Iterations 0
time step continuity errors : sum local = 5.17385e-16, global = -1.11292e-16, cumulative = -4.82168e-15
ExecutionTime = 0.16 s  ClockTime = 1 s

Courant Number mean: 0.0009416 max: 0.0254114
Time = 0.00042

PIMPLE: iteration 1
diagonal:  Solving for rho, Initial residual = 0, Final residual = 0, No Iterations 0
smoothSolver:  Solving for Ux, Initial residual = 0.0047006, Final residual = 2.11156e-17, No Iterations 1
smoothSolver:  Solving for e, Initial residual = 0.000843771, Final residual = 2.31521e-16, No Iterations 3
smoothSolver:  Solving for p, Initial residual = 0.000359616, Final residual = 2.77863e-16, No Iterations 2
diagonal:  Solving for rho, Initial residual = 0, Final residual = 0, No Iterations 0
time step continuity errors : sum local = 5.31977e-16, global = -1.27368e-16, cumulative = -4.94904e-15
ExecutionTime = 0.16 s  ClockTime = 1 s

Courant Number mean: 0.000960874 max: 0.0257255
Time = 0.00043

PIMPLE: iteration 1
diagonal:  Solving for rho, Initial residual = 0, Final residual = 0, No Iterations 0
smoothSolver:  Solving for Ux, Initial residual = 0.00462255, Final residual = 1.58064e-17, No Iterations 1
smoothSolver:  Solving for e, Initial residual = 0.000875046, Final residual = 3.22161e-16, No Iterations 3
smoothSolver:  Solving for p, Initial residual = 0.000356724, Final residual = 2.71094e-16, No Iterations 2
diagonal:  Solving for rho, Initial residual = 0, Final residual = 0, No Iterations 0
time step continuity errors : sum local = 5.09224e-16, global = -7.93885e-17, cumulative = -5.02843e-15
ExecutionTime = 0.16 s  ClockTime = 1 s

Courant Number mean: 0.000980389 max: 0.0261255
Time = 0.00044

PIMPLE: iteration 1
diagonal:  Solving for rho, Initial residual = 0, Final residual = 0, No Iterations 0
smoothSolver:  Solving for Ux, Initial residual = 0.00454786, Final residual = 1.44239e-17, No Iterations 1
smoothSolver:  Solving for e, Initial residual = 0.00090492, Final residual = 4.16007e-16, No Iterations 3
smoothSolver:  Solving for p, Initial residual = 0.000353666, Final residual = 2.7423e-16, No Iterations 2
diagonal:  Solving for rho, Initial residual = 0, Final residual = 0, No Iterations 0
time step continuity errors : sum local = 5.19859e-16, global = -8.85392e-17, cumulative = -5.11697e-15
ExecutionTime = 0.16 s  ClockTime = 1 s

Courant Number mean: 0.00100018 max: 0.0265085
Time = 0.00045

PIMPLE: iteration 1
diagonal:  Solving for rho, Initial residual = 0, Final residual = 0, No Iterations 0
smoothSolver:  Solving for Ux, Initial residual = 0.00447634, Final residual = 2.03515e-17, No Iterations 1
smoothSolver:  Solving for e, Initial residual = 0.000932836, Final residual = 5.19626e-16, No Iterations 3
smoothSolver:  Solving for p, Initial residual = 0.000350497, Final residual = 2.73463e-16, No Iterations 2
diagonal:  Solving for rho, Initial residual = 0, Final residual = 0, No Iterations 0
time step continuity errors : sum local = 5.08482e-16, global = -1.00905e-16, cumulative = -5.21788e-15
ExecutionTime = 0.16 s  ClockTime = 1 s

Courant Number mean: 0.00102026 max: 0.0268757
Time = 0.00046

PIMPLE: iteration 1
diagonal:  Solving for rho, Initial residual = 0, Final residual = 0, No Iterations 0
smoothSolver:  Solving for Ux, Initial residual = 0.00440772, Final residual = 1.04939e-17, No Iterations 1
smoothSolver:  Solving for e, Initial residual = 0.000958679, Final residual = 6.2483e-16, No Iterations 3
smoothSolver:  Solving for p, Initial residual = 0.00034722, Final residual = 2.71466e-16, No Iterations 2
diagonal:  Solving for rho, Initial residual = 0, Final residual = 0, No Iterations 0
time step continuity errors : sum local = 5.17385e-16, global = -1.11787e-16, cumulative = -5.32966e-15
ExecutionTime = 0.16 s  ClockTime = 1 s

Courant Number mean: 0.00104065 max: 0.0272285
Time = 0.00047

PIMPLE: iteration 1
diagonal:  Solving for rho, Initial residual = 0, Final residual = 0, No Iterations 0
smoothSolver:  Solving for Ux, Initial residual = 0.00434175, Final residual = 1.39725e-17, No Iterations 1
smoothSolver:  Solving for e, Initial residual = 0.000982358, Final residual = 7.50327e-16, No Iterations 3
smoothSolver:  Solving for p, Initial residual = 0.000343838, Final residual = 2.70339e-16, No Iterations 2
diagonal:  Solving for rho, Initial residual = 0, Final residual = 0, No Iterations 0
time step continuity errors : sum local = 5.16891e-16, global = -1.09808e-16, cumulative = -5.43947e-15
ExecutionTime = 0.16 s  ClockTime = 1 s

Courant Number mean: 0.00106138 max: 0.0275686
Time = 0.00048

PIMPLE: iteration 1
diagonal:  Solving for rho, Initial residual = 0, Final residual = 0, No Iterations 0
smoothSolver:  Solving for Ux, Initial residual = 0.00427815, Final residual = 1.23197e-17, No Iterations 1
smoothSolver:  Solving for e, Initial residual = 0.00100381, Final residual = 8.68878e-16, No Iterations 3
smoothSolver:  Solving for p, Initial residual = 0.000352775, Final residual = 2.78053e-16, No Iterations 2
diagonal:  Solving for rho, Initial residual = 0, Final residual = 0, No Iterations 0
time step continuity errors : sum local = 5.27031e-16, global = -9.67006e-17, cumulative = -5.53617e-15
ExecutionTime = 0.16 s  ClockTime = 1 s

Courant Number mean: 0.00108249 max: 0.0278982
Time = 0.00049

PIMPLE: iteration 1
diagonal:  Solving for rho, Initial residual = 0, Final residual = 0, No Iterations 0
smoothSolver:  Solving for Ux, Initial residual = 0.00421669, Final residual = 1.29155e-17, No Iterations 1
smoothSolver:  Solving for e, Initial residual = 0.00102299, Final residual = 9.92938e-16, No Iterations 3
smoothSolver:  Solving for p, Initial residual = 0.000362045, Final residual = 2.81601e-16, No Iterations 2
diagonal:  Solving for rho, Initial residual = 0, Final residual = 0, No Iterations 0
time step continuity errors : sum local = 5.30988e-16, global = -8.03778e-17, cumulative = -5.61655e-15
ExecutionTime = 0.16 s  ClockTime = 1 s

Courant Number mean: 0.00110393 max: 0.0282144
Time = 0.0005

PIMPLE: iteration 1
diagonal:  Solving for rho, Initial residual = 0, Final residual = 0, No Iterations 0
smoothSolver:  Solving for Ux, Initial residual = 0.0041572, Final residual = 2.18839e-17, No Iterations 1
smoothSolver:  Solving for e, Initial residual = 0.00103963, Final residual = 2.2893e-17, No Iterations 4
smoothSolver:  Solving for p, Initial residual = 0.000370899, Final residual = 2.85885e-16, No Iterations 2
diagonal:  Solving for rho, Initial residual = 0, Final residual = 0, No Iterations 0
time step continuity errors : sum local = 5.56709e-16, global = -8.87865e-17, cumulative = -5.70534e-15
ExecutionTime = 0.17 s  ClockTime = 1 s

Courant Number mean: 0.00112546 max: 0.0285023
Time = 0.00051

PIMPLE: iteration 1
diagonal:  Solving for rho, Initial residual = 0, Final residual = 0, No Iterations 0
smoothSolver:  Solving for Ux, Initial residual = 0.00409972, Final residual = 1.52752e-17, No Iterations 1
smoothSolver:  Solving for e, Initial residual = 0.00105284, Final residual = 2.03325e-17, No Iterations 4
smoothSolver:  Solving for p, Initial residual = 0.000379041, Final residual = 2.90656e-16, No Iterations 2
diagonal:  Solving for rho, Initial residual = 0, Final residual = 0, No Iterations 0
time step continuity errors : sum local = 5.43106e-16, global = -7.02378e-17, cumulative = -5.77558e-15
ExecutionTime = 0.17 s  ClockTime = 1 s

Courant Number mean: 0.00114686 max: 0.0287501
Time = 0.00052

PIMPLE: iteration 1
diagonal:  Solving for rho, Initial residual = 0, Final residual = 0, No Iterations 0
smoothSolver:  Solving for Ux, Initial residual = 0.00404424, Final residual = 7.77788e-18, No Iterations 1
smoothSolver:  Solving for e, Initial residual = 0.00106189, Final residual = 2.30284e-17, No Iterations 4
smoothSolver:  Solving for p, Initial residual = 0.000386224, Final residual = 3.00636e-16, No Iterations 2
diagonal:  Solving for rho, Initial residual = 0, Final residual = 0, No Iterations 0
time step continuity errors : sum local = 5.55225e-16, global = -8.03778e-17, cumulative = -5.85595e-15
ExecutionTime = 0.17 s  ClockTime = 1 s

Courant Number mean: 0.00116797 max: 0.0289509
Time = 0.00053

PIMPLE: iteration 1
diagonal:  Solving for rho, Initial residual = 0, Final residual = 0, No Iterations 0
smoothSolver:  Solving for Ux, Initial residual = 0.0039907, Final residual = 3.12695e-17, No Iterations 1
smoothSolver:  Solving for e, Initial residual = 0.00106629, Final residual = 2.37897e-17, No Iterations 4
smoothSolver:  Solving for p, Initial residual = 0.000392283, Final residual = 3.00083e-16, No Iterations 2
diagonal:  Solving for rho, Initial residual = 0, Final residual = 0, No Iterations 0
time step continuity errors : sum local = 5.5201e-16, global = -8.95285e-17, cumulative = -5.94548e-15
ExecutionTime = 0.17 s  ClockTime = 1 s

Courant Number mean: 0.00118872 max: 0.0291024
Time = 0.00054

PIMPLE: iteration 1
diagonal:  Solving for rho, Initial residual = 0, Final residual = 0, No Iterations 0
smoothSolver:  Solving for Ux, Initial residual = 0.00393882, Final residual = 9.85203e-18, No Iterations 1
smoothSolver:  Solving for e, Initial residual = 0.00106557, Final residual = 2.16892e-17, No Iterations 4
smoothSolver:  Solving for p, Initial residual = 0.000397139, Final residual = 2.99691e-16, No Iterations 2
diagonal:  Solving for rho, Initial residual = 0, Final residual = 0, No Iterations 0
time step continuity errors : sum local = 5.67591e-16, global = -9.12597e-17, cumulative = -6.03674e-15
ExecutionTime = 0.17 s  ClockTime = 1 s

Courant Number mean: 0.00120907 max: 0.0292068
Time = 0.00055

PIMPLE: iteration 1
diagonal:  Solving for rho, Initial residual = 0, Final residual = 0, No Iterations 0
smoothSolver:  Solving for Ux, Initial residual = 0.003888, Final residual = 6.7188e-18, No Iterations 1
smoothSolver:  Solving for e, Initial residual = 0.00105936, Final residual = 2.21854e-17, No Iterations 4
smoothSolver:  Solving for p, Initial residual = 0.000400788, Final residual = 3.01772e-16, No Iterations 2
diagonal:  Solving for rho, Initial residual = 0, Final residual = 0, No Iterations 0
time step continuity errors : sum local = 5.75257e-16, global = -7.81519e-17, cumulative = -6.11489e-15
ExecutionTime = 0.17 s  ClockTime = 1 s

Courant Number mean: 0.00122904 max: 0.029269
Time = 0.00056

PIMPLE: iteration 1
diagonal:  Solving for rho, Initial residual = 0, Final residual = 0, No Iterations 0
smoothSolver:  Solving for Ux, Initial residual = 0.00383784, Final residual = 1.70035e-17, No Iterations 1
smoothSolver:  Solving for e, Initial residual = 0.00104827, Final residual = 2.27222e-17, No Iterations 4
smoothSolver:  Solving for p, Initial residual = 0.000403279, Final residual = 3.05099e-16, No Iterations 2
diagonal:  Solving for rho, Initial residual = 0, Final residual = 0, No Iterations 0
time step continuity errors : sum local = 5.82677e-16, global = -6.57861e-17, cumulative = -6.18068e-15
ExecutionTime = 0.17 s  ClockTime = 1 s

Courant Number mean: 0.00124867 max: 0.0292956
Time = 0.00057

PIMPLE: iteration 1
diagonal:  Solving for rho, Initial residual = 0, Final residual = 0, No Iterations 0
smoothSolver:  Solving for Ux, Initial residual = 0.0037885, Final residual = 9.80627e-18, No Iterations 1
smoothSolver:  Solving for e, Initial residual = 0.00103326, Final residual = 8.94854e-16, No Iterations 3
smoothSolver:  Solving for p, Initial residual = 0.000404699, Final residual = 3.07764e-16, No Iterations 2
diagonal:  Solving for rho, Initial residual = 0, Final residual = 0, No Iterations 0
time step continuity errors : sum local = 5.87871e-16, global = -8.97758e-17, cumulative = -6.27045e-15
ExecutionTime = 0.17 s  ClockTime = 1 s

Courant Number mean: 0.00126803 max: 0.0292935
Time = 0.00058

PIMPLE: iteration 1
diagonal:  Solving for rho, Initial residual = 0, Final residual = 0, No Iterations 0
smoothSolver:  Solving for Ux, Initial residual = 0.00373966, Final residual = 1.06979e-17, No Iterations 1
smoothSolver:  Solving for e, Initial residual = 0.00102308, Final residual = 7.01253e-16, No Iterations 3
smoothSolver:  Solving for p, Initial residual = 0.000406121, Final residual = 3.05266e-16, No Iterations 2
diagonal:  Solving for rho, Initial residual = 0, Final residual = 0, No Iterations 0
time step continuity errors : sum local = 5.61408e-16, global = -4.89686e-17, cumulative = -6.31942e-15
ExecutionTime = 0.17 s  ClockTime = 1 s

Courant Number mean: 0.00128716 max: 0.0292692
Time = 0.00059

PIMPLE: iteration 1
diagonal:  Solving for rho, Initial residual = 0, Final residual = 0, No Iterations 0
smoothSolver:  Solving for Ux, Initial residual = 0.00373372, Final residual = 1.44905e-17, No Iterations 1
smoothSolver:  Solving for e, Initial residual = 0.00101726, Final residual = 3.87421e-16, No Iterations 3
smoothSolver:  Solving for p, Initial residual = 0.000407559, Final residual = 3.07448e-16, No Iterations 2
diagonal:  Solving for rho, Initial residual = 0, Final residual = 0, No Iterations 0
time step continuity errors : sum local = 5.74021e-16, global = -6.35603e-17, cumulative = -6.38298e-15
ExecutionTime = 0.17 s  ClockTime = 1 s

Courant Number mean: 0.00130613 max: 0.0292304
Time = 0.0006

PIMPLE: iteration 1
diagonal:  Solving for rho, Initial residual = 0, Final residual = 0, No Iterations 0
smoothSolver:  Solving for Ux, Initial residual = 0.00375154, Final residual = 1.89274e-17, No Iterations 1
smoothSolver:  Solving for e, Initial residual = 0.00100908, Final residual = 8.20196e-17, No Iterations 3
smoothSolver:  Solving for p, Initial residual = 0.000408278, Final residual = 3.073e-16, No Iterations 2
diagonal:  Solving for rho, Initial residual = 0, Final residual = 0, No Iterations 0
time step continuity errors : sum local = 5.73279e-16, global = -5.98505e-17, cumulative = -6.44283e-15
ExecutionTime = 0.17 s  ClockTime = 1 s

Courant Number mean: 0.00132502 max: 0.0291816
Time = 0.00061

PIMPLE: iteration 1
diagonal:  Solving for rho, Initial residual = 0, Final residual = 0, No Iterations 0
smoothSolver:  Solving for Ux, Initial residual = 0.00376475, Final residual = 9.80178e-18, No Iterations 1
smoothSolver:  Solving for e, Initial residual = 0.00102008, Final residual = 4.30588e-16, No Iterations 3
smoothSolver:  Solving for p, Initial residual = 0.000406085, Final residual = 3.07616e-16, No Iterations 2
diagonal:  Solving for rho, Initial residual = 0, Final residual = 0, No Iterations 0
time step continuity errors : sum local = 5.90096e-16, global = -8.26036e-17, cumulative = -6.52544e-15
ExecutionTime = 0.17 s  ClockTime = 1 s

Courant Number mean: 0.00134389 max: 0.0291283
Time = 0.00062

PIMPLE: iteration 1
diagonal:  Solving for rho, Initial residual = 0, Final residual = 0, No Iterations 0
smoothSolver:  Solving for Ux, Initial residual = 0.00377243, Final residual = 1.82598e-17, No Iterations 1
smoothSolver:  Solving for e, Initial residual = 0.00104455, Final residual = 8.24868e-16, No Iterations 3
smoothSolver:  Solving for p, Initial residual = 0.000402492, Final residual = 3.06521e-16, No Iterations 2
diagonal:  Solving for rho, Initial residual = 0, Final residual = 0, No Iterations 0
time step continuity errors : sum local = 5.81193e-16, global = -7.07324e-17, cumulative = -6.59617e-15
ExecutionTime = 0.17 s  ClockTime = 1 s

Courant Number mean: 0.00136276 max: 0.0290737
Time = 0.00063

PIMPLE: iteration 1
diagonal:  Solving for rho, Initial residual = 0, Final residual = 0, No Iterations 0
smoothSolver:  Solving for Ux, Initial residual = 0.00377431, Final residual = 7.26108e-18, No Iterations 1
smoothSolver:  Solving for e, Initial residual = 0.00106584, Final residual = 2.34178e-17, No Iterations 4
smoothSolver:  Solving for p, Initial residual = 0.000398575, Final residual = 3.03986e-16, No Iterations 2
diagonal:  Solving for rho, Initial residual = 0, Final residual = 0, No Iterations 0
time step continuity errors : sum local = 5.51762e-16, global = -4.08072e-17, cumulative = -6.63698e-15
ExecutionTime = 0.17 s  ClockTime = 1 s

Courant Number mean: 0.00138164 max: 0.02902
Time = 0.00064

PIMPLE: iteration 1
diagonal:  Solving for rho, Initial residual = 0, Final residual = 0, No Iterations 0
smoothSolver:  Solving for Ux, Initial residual = 0.00377067, Final residual = 1.87772e-17, No Iterations 1
smoothSolver:  Solving for e, Initial residual = 0.00108984, Final residual = 2.12118e-17, No Iterations 4
smoothSolver:  Solving for p, Initial residual = 0.000394361, Final residual = 3.04256e-16, No Iterations 2
diagonal:  Solving for rho, Initial residual = 0, Final residual = 0, No Iterations 0
time step continuity errors : sum local = 5.67838e-16, global = -4.8474e-17, cumulative = -6.68545e-15
ExecutionTime = 0.17 s  ClockTime = 1 s

Courant Number mean: 0.00140057 max: 0.0289684
Time = 0.00065

PIMPLE: iteration 1
diagonal:  Solving for rho, Initial residual = 0, Final residual = 0, No Iterations 0
smoothSolver:  Solving for Ux, Initial residual = 0.003761, Final residual = 1.51044e-17, No Iterations 1
smoothSolver:  Solving for e, Initial residual = 0.00111005, Final residual = 1.92015e-17, No Iterations 4
smoothSolver:  Solving for p, Initial residual = 0.000389854, Final residual = 3.03422e-16, No Iterations 2
diagonal:  Solving for rho, Initial residual = 0, Final residual = 0, No Iterations 0
time step continuity errors : sum local = 5.71548e-16, global = -7.54314e-17, cumulative = -6.76088e-15
ExecutionTime = 0.18 s  ClockTime = 1 s

Courant Number mean: 0.00141956 max: 0.0289199
Time = 0.00066

PIMPLE: iteration 1
diagonal:  Solving for rho, Initial residual = 0, Final residual = 0, No Iterations 0
smoothSolver:  Solving for Ux, Initial residual = 0.00374541, Final residual = 8.46861e-18, No Iterations 1
smoothSolver:  Solving for e, Initial residual = 0.00111319, Final residual = 2.23207e-17, No Iterations 4
smoothSolver:  Solving for p, Initial residual = 0.00038418, Final residual = 3.01354e-16, No Iterations 2
diagonal:  Solving for rho, Initial residual = 0, Final residual = 0, No Iterations 0
time step continuity errors : sum local = 5.66849e-16, global = -6.08398e-17, cumulative = -6.82172e-15
ExecutionTime = 0.18 s  ClockTime = 1 s

Courant Number mean: 0.00143863 max: 0.0288751
Time = 0.00067

PIMPLE: iteration 1
diagonal:  Solving for rho, Initial residual = 0, Final residual = 0, No Iterations 0
smoothSolver:  Solving for Ux, Initial residual = 0.00372376, Final residual = 8.05951e-18, No Iterations 1
smoothSolver:  Solving for e, Initial residual = 0.00111492, Final residual = 2.3959e-17, No Iterations 4
smoothSolver:  Solving for p, Initial residual = 0.000378478, Final residual = 2.96434e-16, No Iterations 2
diagonal:  Solving for rho, Initial residual = 0, Final residual = 0, No Iterations 0
time step continuity errors : sum local = 5.53988e-16, global = -5.58935e-17, cumulative = -6.87762e-15
ExecutionTime = 0.18 s  ClockTime = 1 s

Courant Number mean: 0.00145778 max: 0.0288352
Time = 0.00068

PIMPLE: iteration 1
diagonal:  Solving for rho, Initial residual = 0, Final residual = 0, No Iterations 0
smoothSolver:  Solving for Ux, Initial residual = 0.00369767, Final residual = 1.82076e-17, No Iterations 1
smoothSolver:  Solving for e, Initial residual = 0.00111525, Final residual = 2.65678e-17, No Iterations 4
smoothSolver:  Solving for p, Initial residual = 0.000372776, Final residual = 3.02625e-16, No Iterations 2
diagonal:  Solving for rho, Initial residual = 0, Final residual = 0, No Iterations 0
time step continuity errors : sum local = 5.62644e-16, global = -7.09797e-17, cumulative = -6.9486e-15
ExecutionTime = 0.18 s  ClockTime = 1 s

Courant Number mean: 0.00147703 max: 0.028801
Time = 0.00069

PIMPLE: iteration 1
diagonal:  Solving for rho, Initial residual = 0, Final residual = 0, No Iterations 0
smoothSolver:  Solving for Ux, Initial residual = 0.00366752, Final residual = 1.02618e-17, No Iterations 1
smoothSolver:  Solving for e, Initial residual = 0.00112012, Final residual = 1.7765e-17, No Iterations 4
smoothSolver:  Solving for p, Initial residual = 0.000367048, Final residual = 2.9952e-16, No Iterations 2
diagonal:  Solving for rho, Initial residual = 0, Final residual = 0, No Iterations 0
time step continuity errors : sum local = 5.55967e-16, global = -6.97432e-17, cumulative = -7.01834e-15
ExecutionTime = 0.18 s  ClockTime = 1 s

Courant Number mean: 0.00149637 max: 0.0287733
Time = 0.0007

PIMPLE: iteration 1
diagonal:  Solving for rho, Initial residual = 0, Final residual = 0, No Iterations 0
smoothSolver:  Solving for Ux, Initial residual = 0.00363379, Final residual = 7.8054e-18, No Iterations 1
smoothSolver:  Solving for e, Initial residual = 0.00112465, Final residual = 2.11055e-17, No Iterations 4
smoothSolver:  Solving for p, Initial residual = 0.000361369, Final residual = 2.93333e-16, No Iterations 2
diagonal:  Solving for rho, Initial residual = 0, Final residual = 0, No Iterations 0
time step continuity errors : sum local = 5.60418e-16, global = -5.58935e-17, cumulative = -7.07423e-15
ExecutionTime = 0.18 s  ClockTime = 1 s

Courant Number mean: 0.00151582 max: 0.0287523
Time = 0.00071

PIMPLE: iteration 1
diagonal:  Solving for rho, Initial residual = 0, Final residual = 0, No Iterations 0
smoothSolver:  Solving for Ux, Initial residual = 0.00359685, Final residual = 1.37529e-17, No Iterations 1
smoothSolver:  Solving for e, Initial residual = 0.00112778, Final residual = 2.51679e-17, No Iterations 4
smoothSolver:  Solving for p, Initial residual = 0.000355769, Final residual = 2.89907e-16, No Iterations 2
diagonal:  Solving for rho, Initial residual = 0, Final residual = 0, No Iterations 0
time step continuity errors : sum local = 5.38655e-16, global = -5.39149e-17, cumulative = -7.12815e-15
ExecutionTime = 0.18 s  ClockTime = 1 s

Courant Number mean: 0.0015354 max: 0.0287383
Time = 0.00072

PIMPLE: iteration 1
diagonal:  Solving for rho, Initial residual = 0, Final residual = 0, No Iterations 0
smoothSolver:  Solving for Ux, Initial residual = 0.00355703, Final residual = 1.51667e-17, No Iterations 1
smoothSolver:  Solving for e, Initial residual = 0.00112951, Final residual = 3.02743e-17, No Iterations 4
smoothSolver:  Solving for p, Initial residual = 0.00035759, Final residual = 2.95864e-16, No Iterations 2
diagonal:  Solving for rho, Initial residual = 0, Final residual = 0, No Iterations 0
time step continuity errors : sum local = 5.7229e-16, global = -7.37002e-17, cumulative = -7.20185e-15
ExecutionTime = 0.18 s  ClockTime = 1 s

Courant Number mean: 0.00155511 max: 0.0287311
Time = 0.00073

PIMPLE: iteration 1
diagonal:  Solving for rho, Initial residual = 0, Final residual = 0, No Iterations 0
smoothSolver:  Solving for Ux, Initial residual = 0.00351463, Final residual = 1.44814e-17, No Iterations 1
smoothSolver:  Solving for e, Initial residual = 0.00112986, Final residual = 2.54691e-17, No Iterations 4
smoothSolver:  Solving for p, Initial residual = 0.000362048, Final residual = 2.99342e-16, No Iterations 2
diagonal:  Solving for rho, Initial residual = 0, Final residual = 0, No Iterations 0
time step continuity errors : sum local = 5.58193e-16, global = -4.72374e-17, cumulative = -7.24908e-15
ExecutionTime = 0.18 s  ClockTime = 1 s

Courant Number mean: 0.00157495 max: 0.0287309
Time = 0.00074

PIMPLE: iteration 1
diagonal:  Solving for rho, Initial residual = 0, Final residual = 0, No Iterations 0
smoothSolver:  Solving for Ux, Initial residual = 0.00346993, Final residual = 1.28972e-17, No Iterations 1
smoothSolver:  Solving for e, Initial residual = 0.00112883, Final residual = 2.12601e-17, No Iterations 4
smoothSolver:  Solving for p, Initial residual = 0.000366233, Final residual = 3.02799e-16, No Iterations 2
diagonal:  Solving for rho, Initial residual = 0, Final residual = 0, No Iterations 0
time step continuity errors : sum local = 5.66601e-16, global = -6.00978e-17, cumulative = -7.30918e-15
ExecutionTime = 0.18 s  ClockTime = 1 s

Courant Number mean: 0.00159493 max: 0.0287375
Time = 0.00075

PIMPLE: iteration 1
diagonal:  Solving for rho, Initial residual = 0, Final residual = 0, No Iterations 0
smoothSolver:  Solving for Ux, Initial residual = 0.00342321, Final residual = 9.57871e-18, No Iterations 1
smoothSolver:  Solving for e, Initial residual = 0.00113306, Final residual = 2.57606e-17, No Iterations 4
smoothSolver:  Solving for p, Initial residual = 0.000370141, Final residual = 3.0632e-16, No Iterations 2
diagonal:  Solving for rho, Initial residual = 0, Final residual = 0, No Iterations 0
time step continuity errors : sum local = 5.70311e-16, global = -4.15491e-17, cumulative = -7.35073e-15
ExecutionTime = 0.18 s  ClockTime = 1 s

Courant Number mean: 0.00161504 max: 0.0287507
Time = 0.00076

PIMPLE: iteration 1
diagonal:  Solving for rho, Initial residual = 0, Final residual = 0, No Iterations 0
smoothSolver:  Solving for Ux, Initial residual = 0.0033747, Final residual = 2.20883e-17, No Iterations 1
smoothSolver:  Solving for e, Initial residual = 0.00113689, Final residual = 9.24849e-16, No Iterations 3
smoothSolver:  Solving for p, Initial residual = 0.000373736, Final residual = 3.08604e-16, No Iterations 2
diagonal:  Solving for rho, Initial residual = 0, Final residual = 0, No Iterations 0
time step continuity errors : sum local = 5.66107e-16, global = -3.4377e-17, cumulative = -7.38511e-15
ExecutionTime = 0.19 s  ClockTime = 1 s

Courant Number mean: 0.00163529 max: 0.0287933
Time = 0.00077

PIMPLE: iteration 1
diagonal:  Solving for rho, Initial residual = 0, Final residual = 0, No Iterations 0
smoothSolver:  Solving for Ux, Initial residual = 0.00332416, Final residual = 1.2525e-17, No Iterations 1
smoothSolver:  Solving for e, Initial residual = 0.00113892, Final residual = 8.11429e-16, No Iterations 3
smoothSolver:  Solving for p, Initial residual = 0.000377056, Final residual = 3.10488e-16, No Iterations 2
diagonal:  Solving for rho, Initial residual = 0, Final residual = 0, No Iterations 0
time step continuity errors : sum local = 5.61902e-16, global = -1.78068e-17, cumulative = -7.40292e-15
ExecutionTime = 0.19 s  ClockTime = 1 s

Courant Number mean: 0.00165568 max: 0.0290004
Time = 0.00078

PIMPLE: iteration 1
diagonal:  Solving for rho, Initial residual = 0, Final residual = 0, No Iterations 0
smoothSolver:  Solving for Ux, Initial residual = 0.00327185, Final residual = 1.35601e-17, No Iterations 1
smoothSolver:  Solving for e, Initial residual = 0.0011392, Final residual = 6.50523e-16, No Iterations 3
smoothSolver:  Solving for p, Initial residual = 0.000380147, Final residual = 3.17196e-16, No Iterations 2
diagonal:  Solving for rho, Initial residual = 0, Final residual = 0, No Iterations 0
time step continuity errors : sum local = 5.77483e-16, global = -4.13018e-17, cumulative = -7.44422e-15
ExecutionTime = 0.19 s  ClockTime = 1 s

Courant Number mean: 0.00167621 max: 0.0291965
Time = 0.00079

PIMPLE: iteration 1
diagonal:  Solving for rho, Initial residual = 0, Final residual = 0, No Iterations 0
smoothSolver:  Solving for Ux, Initial residual = 0.00321814, Final residual = 8.11038e-18, No Iterations 1
smoothSolver:  Solving for e, Initial residual = 0.00113778, Final residual = 3.99117e-16, No Iterations 3
smoothSolver:  Solving for p, Initial residual = 0.000382989, Final residual = 3.18302e-16, No Iterations 2
diagonal:  Solving for rho, Initial residual = 0, Final residual = 0, No Iterations 0
time step continuity errors : sum local = 5.92075e-16, global = -2.17638e-17, cumulative = -7.46598e-15
ExecutionTime = 0.19 s  ClockTime = 1 s

Courant Number mean: 0.0016969 max: 0.0293833
Time = 0.0008

PIMPLE: iteration 1
diagonal:  Solving for rho, Initial residual = 0, Final residual = 0, No Iterations 0
smoothSolver:  Solving for Ux, Initial residual = 0.00316309, Final residual = 9.6113e-18, No Iterations 1
smoothSolver:  Solving for e, Initial residual = 0.00113466, Final residual = 1.32787e-16, No Iterations 3
smoothSolver:  Solving for p, Initial residual = 0.000385566, Final residual = 3.18591e-16, No Iterations 2
diagonal:  Solving for rho, Initial residual = 0, Final residual = 0, No Iterations 0
time step continuity errors : sum local = 5.93806e-16, global = -5.02052e-17, cumulative = -7.51619e-15
ExecutionTime = 0.19 s  ClockTime = 1 s

Courant Number mean: 0.00171777 max: 0.0295613
Time = 0.00081

PIMPLE: iteration 1
diagonal:  Solving for rho, Initial residual = 0, Final residual = 0, No Iterations 0
smoothSolver:  Solving for Ux, Initial residual = 0.00310693, Final residual = 1.04668e-17, No Iterations 1
smoothSolver:  Solving for e, Initial residual = 0.0011422, Final residual = 2.41196e-16, No Iterations 3
smoothSolver:  Solving for p, Initial residual = 0.000387882, Final residual = 3.21158e-16, No Iterations 2
diagonal:  Solving for rho, Initial residual = 0, Final residual = 0, No Iterations 0
time step continuity errors : sum local = 5.99494e-16, global = -2.86887e-17, cumulative = -7.54488e-15
ExecutionTime = 0.19 s  ClockTime = 1 s

Courant Number mean: 0.00173881 max: 0.0297312
Time = 0.00082

PIMPLE: iteration 1
diagonal:  Solving for rho, Initial residual = 0, Final residual = 0, No Iterations 0
smoothSolver:  Solving for Ux, Initial residual = 0.00304984, Final residual = 1.04989e-17, No Iterations 1
smoothSolver:  Solving for e, Initial residual = 0.00117048, Final residual = 5.20928e-16, No Iterations 3
smoothSolver:  Solving for p, Initial residual = 0.000389904, Final residual = 3.22657e-16, No Iterations 2
diagonal:  Solving for rho, Initial residual = 0, Final residual = 0, No Iterations 0
time step continuity errors : sum local = 5.97763e-16, global = -1.26131e-17, cumulative = -7.55749e-15
ExecutionTime = 0.19 s  ClockTime = 1 s

Courant Number mean: 0.00176 max: 0.0298908
Time = 0.00083

PIMPLE: iteration 1
diagonal:  Solving for rho, Initial residual = 0, Final residual = 0, No Iterations 0
smoothSolver:  Solving for Ux, Initial residual = 0.00299499, Final residual = 1.03851e-17, No Iterations 1
smoothSolver:  Solving for e, Initial residual = 0.00119701, Final residual = 8.21807e-16, No Iterations 3
smoothSolver:  Solving for p, Initial residual = 0.000392732, Final residual = 3.22704e-16, No Iterations 2
diagonal:  Solving for rho, Initial residual = 0, Final residual = 0, No Iterations 0
time step continuity errors : sum local = 5.92075e-16, global = -1.97853e-17, cumulative = -7.57727e-15
ExecutionTime = 0.19 s  ClockTime = 1 s

Courant Number mean: 0.00178125 max: 0.0300367
Time = 0.00084

PIMPLE: iteration 1
diagonal:  Solving for rho, Initial residual = 0, Final residual = 0, No Iterations 0
smoothSolver:  Solving for Ux, Initial residual = 0.00299244, Final residual = 1.10482e-17, No Iterations 1
smoothSolver:  Solving for e, Initial residual = 0.00122233, Final residual = 2.62981e-17, No Iterations 4
smoothSolver:  Solving for p, Initial residual = 0.000396318, Final residual = 3.31516e-16, No Iterations 2
diagonal:  Solving for rho, Initial residual = 0, Final residual = 0, No Iterations 0
time step continuity errors : sum local = 5.94795e-16, global = -2.10219e-17, cumulative = -7.5983e-15
ExecutionTime = 0.19 s  ClockTime = 1 s

Courant Number mean: 0.0018025 max: 0.0301661
Time = 0.00085

PIMPLE: iteration 1
diagonal:  Solving for rho, Initial residual = 0, Final residual = 0, No Iterations 0
smoothSolver:  Solving for Ux, Initial residual = 0.00298696, Final residual = 1.13915e-17, No Iterations 1
smoothSolver:  Solving for e, Initial residual = 0.00124552, Final residual = 1.959e-17, No Iterations 4
smoothSolver:  Solving for p, Initial residual = 0.000399004, Final residual = 3.26625e-16, No Iterations 2
diagonal:  Solving for rho, Initial residual = 0, Final residual = 0, No Iterations 0
time step continuity errors : sum local = 6.03946e-16, global = -5.93559e-18, cumulative = -7.60423e-15
ExecutionTime = 0.19 s  ClockTime = 1 s

Courant Number mean: 0.00182369 max: 0.0302778
Time = 0.00086

PIMPLE: iteration 1
diagonal:  Solving for rho, Initial residual = 0, Final residual = 0, No Iterations 0
smoothSolver:  Solving for Ux, Initial residual = 0.00297852, Final residual = 1.71367e-17, No Iterations 1
smoothSolver:  Solving for e, Initial residual = 0.00125123, Final residual = 2.33118e-17, No Iterations 4
smoothSolver:  Solving for p, Initial residual = 0.000402008, Final residual = 3.30103e-16, No Iterations 2
diagonal:  Solving for rho, Initial residual = 0, Final residual = 0, No Iterations 0
time step continuity errors : sum local = 6.10871e-16, global = -1.18712e-17, cumulative = -7.6161e-15
ExecutionTime = 0.19 s  ClockTime = 1 s

Courant Number mean: 0.00184479 max: 0.0303687
Time = 0.00087

PIMPLE: iteration 1
diagonal:  Solving for rho, Initial residual = 0, Final residual = 0, No Iterations 0
smoothSolver:  Solving for Ux, Initial residual = 0.00296729, Final residual = 1.65491e-17, No Iterations 1
smoothSolver:  Solving for e, Initial residual = 0.00125808, Final residual = 2.02873e-17, No Iterations 4
smoothSolver:  Solving for p, Initial residual = 0.000404297, Final residual = 3.30592e-16, No Iterations 2
diagonal:  Solving for rho, Initial residual = 0, Final residual = 0, No Iterations 0
time step continuity errors : sum local = 6.22495e-16, global = -4.20438e-18, cumulative = -7.62031e-15
ExecutionTime = 0.19 s  ClockTime = 1 s

Courant Number mean: 0.00186576 max: 0.0304405
Time = 0.00088

PIMPLE: iteration 1
diagonal:  Solving for rho, Initial residual = 0, Final residual = 0, No Iterations 0
smoothSolver:  Solving for Ux, Initial residual = 0.00295334, Final residual = 1.21582e-17, No Iterations 1
smoothSolver:  Solving for e, Initial residual = 0.00126685, Final residual = 2.18549e-17, No Iterations 4
smoothSolver:  Solving for p, Initial residual = 0.000405197, Final residual = 3.29715e-16, No Iterations 2
diagonal:  Solving for rho, Initial residual = 0, Final residual = 0, No Iterations 0
time step continuity errors : sum local = 6.21506e-16, global = -2.39897e-17, cumulative = -7.6443e-15
ExecutionTime = 0.2 s  ClockTime = 1 s

Courant Number mean: 0.0018866 max: 0.0304942
Time = 0.00089

PIMPLE: iteration 1
diagonal:  Solving for rho, Initial residual = 0, Final residual = 0, No Iterations 0
smoothSolver:  Solving for Ux, Initial residual = 0.0029367, Final residual = 1.19527e-17, No Iterations 1
smoothSolver:  Solving for e, Initial residual = 0.00127408, Final residual = 2.13862e-17, No Iterations 4
smoothSolver:  Solving for p, Initial residual = 0.000402862, Final residual = 3.27067e-16, No Iterations 2
diagonal:  Solving for rho, Initial residual = 0, Final residual = 0, No Iterations 0
time step continuity errors : sum local = 6.12355e-16, global = -1.8796e-17, cumulative = -7.66309e-15
ExecutionTime = 0.2 s  ClockTime = 1 s

Courant Number mean: 0.00190729 max: 0.0305335
Time = 0.0009

PIMPLE: iteration 1
diagonal:  Solving for rho, Initial residual = 0, Final residual = 0, No Iterations 0
smoothSolver:  Solving for Ux, Initial residual = 0.00293627, Final residual = 1.312e-17, No Iterations 1
smoothSolver:  Solving for e, Initial residual = 0.00127946, Final residual = 2.31122e-17, No Iterations 4
smoothSolver:  Solving for p, Initial residual = 0.000398712, Final residual = 3.27788e-16, No Iterations 2
diagonal:  Solving for rho, Initial residual = 0, Final residual = 0, No Iterations 0
time step continuity errors : sum local = 5.97763e-16, global = -8.65607e-18, cumulative = -7.67175e-15
ExecutionTime = 0.2 s  ClockTime = 1 s

Courant Number mean: 0.00192785 max: 0.0305608
Time = 0.00091

PIMPLE: iteration 1
diagonal:  Solving for rho, Initial residual = 0, Final residual = 0, No Iterations 0
smoothSolver:  Solving for Ux, Initial residual = 0.00293393, Final residual = 1.16594e-17, No Iterations 1
smoothSolver:  Solving for e, Initial residual = 0.00128279, Final residual = 2.57149e-17, No Iterations 4
smoothSolver:  Solving for p, Initial residual = 0.000393553, Final residual = 3.30483e-16, No Iterations 2
diagonal:  Solving for rho, Initial residual = 0, Final residual = 0, No Iterations 0
time step continuity errors : sum local = 6.13097e-16, global = -2.30004e-17, cumulative = -7.69475e-15
ExecutionTime = 0.2 s  ClockTime = 1 s

Courant Number mean: 0.00194827 max: 0.0305784
Time = 0.00092

PIMPLE: iteration 1
diagonal:  Solving for rho, Initial residual = 0, Final residual = 0, No Iterations 0
smoothSolver:  Solving for Ux, Initial residual = 0.00292709, Final residual = 1.07064e-17, No Iterations 1
smoothSolver:  Solving for e, Initial residual = 0.00128521, Final residual = 2.04811e-17, No Iterations 4
smoothSolver:  Solving for p, Initial residual = 0.000388198, Final residual = 3.23802e-16, No Iterations 2
diagonal:  Solving for rho, Initial residual = 0, Final residual = 0, No Iterations 0
time step continuity errors : sum local = 6.03452e-16, global = 1.97853e-18, cumulative = -7.69277e-15
ExecutionTime = 0.2 s  ClockTime = 1 s

Courant Number mean: 0.00196858 max: 0.0305878
Time = 0.00093

PIMPLE: iteration 1
diagonal:  Solving for rho, Initial residual = 0, Final residual = 0, No Iterations 0
smoothSolver:  Solving for Ux, Initial residual = 0.00291609, Final residual = 1.1242e-17, No Iterations 1
smoothSolver:  Solving for e, Initial residual = 0.0012912, Final residual = 2.48488e-17, No Iterations 4
smoothSolver:  Solving for p, Initial residual = 0.000382649, Final residual = 3.25276e-16, No Iterations 2
diagonal:  Solving for rho, Initial residual = 0, Final residual = 0, No Iterations 0
time step continuity errors : sum local = 5.96774e-16, global = -7.17217e-18, cumulative = -7.69994e-15
ExecutionTime = 0.2 s  ClockTime = 1 s

Courant Number mean: 0.0019888 max: 0.0305909
Time = 0.00094

PIMPLE: iteration 1
diagonal:  Solving for rho, Initial residual = 0, Final residual = 0, No Iterations 0
smoothSolver:  Solving for Ux, Initial residual = 0.00290133, Final residual = 1.20531e-17, No Iterations 1
smoothSolver:  Solving for e, Initial residual = 0.0012949, Final residual = 2.7097e-17, No Iterations 4
smoothSolver:  Solving for p, Initial residual = 0.000380177, Final residual = 3.2324e-16, No Iterations 2
diagonal:  Solving for rho, Initial residual = 0, Final residual = 0, No Iterations 0
time step continuity errors : sum local = 5.89354e-16, global = -4.20438e-18, cumulative = -7.70415e-15
ExecutionTime = 0.2 s  ClockTime = 1 s

Courant Number mean: 0.00200897 max: 0.0305892
Time = 0.00095

PIMPLE: iteration 1
diagonal:  Solving for rho, Initial residual = 0, Final residual = 0, No Iterations 0
smoothSolver:  Solving for Ux, Initial residual = 0.00288313, Final residual = 1.13237e-17, No Iterations 1
smoothSolver:  Solving for e, Initial residual = 0.00129622, Final residual = 2.64972e-17, No Iterations 4
smoothSolver:  Solving for p, Initial residual = 0.000384174, Final residual = 3.23989e-16, No Iterations 2
diagonal:  Solving for rho, Initial residual = 0, Final residual = 0, No Iterations 0
time step continuity errors : sum local = 5.95785e-16, global = -8.16143e-18, cumulative = -7.71231e-15
ExecutionTime = 0.2 s  ClockTime = 1 s

Courant Number mean: 0.00202912 max: 0.0305841
Time = 0.00096

PIMPLE: iteration 1
diagonal:  Solving for rho, Initial residual = 0, Final residual = 0, No Iterations 0
smoothSolver:  Solving for Ux, Initial residual = 0.00286186, Final residual = 1.20097e-17, No Iterations 1
smoothSolver:  Solving for e, Initial residual = 0.0012954, Final residual = 2.76061e-17, No Iterations 4
smoothSolver:  Solving for p, Initial residual = 0.000387724, Final residual = 3.31411e-16, No Iterations 2
diagonal:  Solving for rho, Initial residual = 0, Final residual = 0, No Iterations 0
time step continuity errors : sum local = 6.21258e-16, global = -5.93559e-18, cumulative = -7.71824e-15
ExecutionTime = 0.2 s  ClockTime = 1 s

Courant Number mean: 0.00204925 max: 0.0305767
Time = 0.00097

PIMPLE: iteration 1
diagonal:  Solving for rho, Initial residual = 0, Final residual = 0, No Iterations 0
smoothSolver:  Solving for Ux, Initial residual = 0.00283721, Final residual = 1.39383e-17, No Iterations 1
smoothSolver:  Solving for e, Initial residual = 0.00129269, Final residual = 2.78059e-17, No Iterations 4
smoothSolver:  Solving for p, Initial residual = 0.000390801, Final residual = 3.33775e-16, No Iterations 2
diagonal:  Solving for rho, Initial residual = 0, Final residual = 0, No Iterations 0
time step continuity errors : sum local = 6.04935e-16, global = -2.86887e-17, cumulative = -7.74693e-15
ExecutionTime = 0.2 s  ClockTime = 1 s

Courant Number mean: 0.00206941 max: 0.0305683
Time = 0.00098

PIMPLE: iteration 1
diagonal:  Solving for rho, Initial residual = 0, Final residual = 0, No Iterations 0
smoothSolver:  Solving for Ux, Initial residual = 0.00280935, Final residual = 1.433e-17, No Iterations 1
smoothSolver:  Solving for e, Initial residual = 0.0012881, Final residual = 2.90319e-17, No Iterations 4
smoothSolver:  Solving for p, Initial residual = 0.000393458, Final residual = 3.35996e-16, No Iterations 2
diagonal:  Solving for rho, Initial residual = 0, Final residual = 0, No Iterations 0
time step continuity errors : sum local = 6.26452e-16, global = -3.21511e-18, cumulative = -7.75015e-15
ExecutionTime = 0.2 s  ClockTime = 1 s

Courant Number mean: 0.0020896 max: 0.0305606
Time = 0.00099

PIMPLE: iteration 1
diagonal:  Solving for rho, Initial residual = 0, Final residual = 0, No Iterations 0
smoothSolver:  Solving for Ux, Initial residual = 0.00277812, Final residual = 1.66372e-17, No Iterations 1
smoothSolver:  Solving for e, Initial residual = 0.00128167, Final residual = 2.38144e-17, No Iterations 4
smoothSolver:  Solving for p, Initial residual = 0.000395666, Final residual = 3.42891e-16, No Iterations 2
diagonal:  Solving for rho, Initial residual = 0, Final residual = 0, No Iterations 0
time step continuity errors : sum local = 6.23979e-16, global = 2.47316e-19, cumulative = -7.7499e-15
ExecutionTime = 0.21 s  ClockTime = 1 s

Courant Number mean: 0.00210984 max: 0.0305538
Time = 0.001

PIMPLE: iteration 1
diagonal:  Solving for rho, Initial residual = 0, Final residual = 0, No Iterations 0
smoothSolver:  Solving for Ux, Initial residual = 0.00274431, Final residual = 1.37926e-17, No Iterations 1
smoothSolver:  Solving for e, Initial residual = 0.00127344, Final residual = 2.17918e-17, No Iterations 4
smoothSolver:  Solving for p, Initial residual = 0.000399978, Final residual = 3.41888e-16, No Iterations 2
diagonal:  Solving for rho, Initial residual = 0, Final residual = 0, No Iterations 0
time step continuity errors : sum local = 6.40549e-16, global = -6.92485e-18, cumulative = -7.75683e-15
ExecutionTime = 0.21 s  ClockTime = 1 s

    functionObjects::mag mag(U) writing field: mag(U)
Courant Number mean: 0.00213015 max: 0.0305483
Time = 0.00101

PIMPLE: iteration 1
diagonal:  Solving for rho, Initial residual = 0, Final residual = 0, No Iterations 0
smoothSolver:  Solving for Ux, Initial residual = 0.0027084, Final residual = 1.72366e-17, No Iterations 1
smoothSolver:  Solving for e, Initial residual = 0.00126349, Final residual = 2.49261e-17, No Iterations 4
smoothSolver:  Solving for p, Initial residual = 0.000404044, Final residual = 3.47662e-16, No Iterations 2
diagonal:  Solving for rho, Initial residual = 0, Final residual = 0, No Iterations 0
time step continuity errors : sum local = 6.38818e-16, global = 3.21511e-18, cumulative = -7.75361e-15
ExecutionTime = 0.21 s  ClockTime = 1 s

Courant Number mean: 0.00215054 max: 0.0305444
Time = 0.00102

PIMPLE: iteration 1
diagonal:  Solving for rho, Initial residual = 0, Final residual = 0, No Iterations 0
smoothSolver:  Solving for Ux, Initial residual = 0.00267067, Final residual = 1.45326e-17, No Iterations 1
smoothSolver:  Solving for e, Initial residual = 0.0012779, Final residual = 3.24056e-17, No Iterations 4
smoothSolver:  Solving for p, Initial residual = 0.000407625, Final residual = 3.46252e-16, No Iterations 2
diagonal:  Solving for rho, Initial residual = 0, Final residual = 0, No Iterations 0
time step continuity errors : sum local = 6.27441e-16, global = -1.4097e-17, cumulative = -7.76771e-15
ExecutionTime = 0.21 s  ClockTime = 1 s

Courant Number mean: 0.00217102 max: 0.0305423
Time = 0.00103

PIMPLE: iteration 1
diagonal:  Solving for rho, Initial residual = 0, Final residual = 0, No Iterations 0
smoothSolver:  Solving for Ux, Initial residual = 0.00263132, Final residual = 1.68347e-17, No Iterations 1
smoothSolver:  Solving for e, Initial residual = 0.00129531, Final residual = 2.92829e-17, No Iterations 4
smoothSolver:  Solving for p, Initial residual = 0.000410711, Final residual = 3.48399e-16, No Iterations 2
diagonal:  Solving for rho, Initial residual = 0, Final residual = 0, No Iterations 0
time step continuity errors : sum local = 6.38323e-16, global = -2.72048e-18, cumulative = -7.77043e-15
ExecutionTime = 0.21 s  ClockTime = 1 s

Courant Number mean: 0.00219159 max: 0.0305423
Time = 0.00104

PIMPLE: iteration 1
diagonal:  Solving for rho, Initial residual = 0, Final residual = 0, No Iterations 0
smoothSolver:  Solving for Ux, Initial residual = 0.00259056, Final residual = 1.1635e-17, No Iterations 1
smoothSolver:  Solving for e, Initial residual = 0.0013111, Final residual = 3.40999e-17, No Iterations 4
smoothSolver:  Solving for p, Initial residual = 0.000413311, Final residual = 3.55012e-16, No Iterations 2
diagonal:  Solving for rho, Initial residual = 0, Final residual = 0, No Iterations 0
time step continuity errors : sum local = 6.37581e-16, global = -9.39802e-18, cumulative = -7.77983e-15
ExecutionTime = 0.21 s  ClockTime = 1 s

Courant Number mean: 0.00221227 max: 0.0305446
Time = 0.00105

PIMPLE: iteration 1
diagonal:  Solving for rho, Initial residual = 0, Final residual = 0, No Iterations 0
smoothSolver:  Solving for Ux, Initial residual = 0.00255736, Final residual = 1.26389e-17, No Iterations 1
smoothSolver:  Solving for e, Initial residual = 0.00132523, Final residual = 2.62029e-17, No Iterations 4
smoothSolver:  Solving for p, Initial residual = 0.000415472, Final residual = 3.49484e-16, No Iterations 2
diagonal:  Solving for rho, Initial residual = 0, Final residual = 0, No Iterations 0
time step continuity errors : sum local = 6.3857e-16, global = -4.94632e-18, cumulative = -7.78477e-15
ExecutionTime = 0.21 s  ClockTime = 1 s

Courant Number mean: 0.00223304 max: 0.0305492
Time = 0.00106

PIMPLE: iteration 1
diagonal:  Solving for rho, Initial residual = 0, Final residual = 0, No Iterations 0
smoothSolver:  Solving for Ux, Initial residual = 0.00255881, Final residual = 1.51764e-17, No Iterations 1
smoothSolver:  Solving for e, Initial residual = 0.00132834, Final residual = 1.95716e-17, No Iterations 4
smoothSolver:  Solving for p, Initial residual = 0.00041781, Final residual = 3.55262e-16, No Iterations 2
diagonal:  Solving for rho, Initial residual = 0, Final residual = 0, No Iterations 0
time step continuity errors : sum local = 6.31893e-16, global = 1.65702e-17, cumulative = -7.7682e-15
ExecutionTime = 0.21 s  ClockTime = 1 s

Courant Number mean: 0.00225393 max: 0.030604
Time = 0.00107

PIMPLE: iteration 1
diagonal:  Solving for rho, Initial residual = 0, Final residual = 0, No Iterations 0
smoothSolver:  Solving for Ux, Initial residual = 0.00255744, Final residual = 1.29881e-17, No Iterations 1
smoothSolver:  Solving for e, Initial residual = 0.00132524, Final residual = 2.88586e-17, No Iterations 4
smoothSolver:  Solving for p, Initial residual = 0.000420037, Final residual = 3.54582e-16, No Iterations 2
diagonal:  Solving for rho, Initial residual = 0, Final residual = 0, No Iterations 0
time step continuity errors : sum local = 6.31398e-16, global = 7.41949e-19, cumulative = -7.76746e-15
ExecutionTime = 0.21 s  ClockTime = 1 s

Courant Number mean: 0.00227494 max: 0.0307393
Time = 0.00108

PIMPLE: iteration 1
diagonal:  Solving for rho, Initial residual = 0, Final residual = 0, No Iterations 0
smoothSolver:  Solving for Ux, Initial residual = 0.00255339, Final residual = 1.23062e-17, No Iterations 1
smoothSolver:  Solving for e, Initial residual = 0.00132548, Final residual = 2.14517e-17, No Iterations 4
smoothSolver:  Solving for p, Initial residual = 0.000421783, Final residual = 3.55304e-16, No Iterations 2
diagonal:  Solving for rho, Initial residual = 0, Final residual = 0, No Iterations 0
time step continuity errors : sum local = 6.73442e-16, global = -1.21185e-17, cumulative = -7.77958e-15
ExecutionTime = 0.21 s  ClockTime = 1 s

[...]
smoothSolver:  Solving for e, Initial residual = 0.00154983, Final residual = 3.78301e-17, No Iterations 4
smoothSolver:  Solving for p, Initial residual = 0.00100257, Final residual = 7.86829e-17, No Iterations 3
diagonal:  Solving for rho, Initial residual = 0, Final residual = 0, No Iterations 0
time step continuity errors : sum local = 1.55569e-16, global = 9.44347e-18, cumulative = 2.81805e-14
ExecutionTime = 1.08 s  ClockTime = 2 s

Courant Number mean: 0.0201999 max: 0.0445606
Time = 0.00974

PIMPLE: iteration 1
diagonal:  Solving for rho, Initial residual = 0, Final residual = 0, No Iterations 0
smoothSolver:  Solving for Ux, Initial residual = 0.0009637, Final residual = 3.64122e-17, No Iterations 1
smoothSolver:  Solving for e, Initial residual = 0.00154497, Final residual = 3.75738e-17, No Iterations 4
smoothSolver:  Solving for p, Initial residual = 0.00100032, Final residual = 6.88481e-17, No Iterations 3
diagonal:  Solving for rho, Initial residual = 0, Final residual = 0, No Iterations 0
time step continuity errors : sum local = 1.36706e-16, global = -7.45668e-18, cumulative = 2.8173e-14
ExecutionTime = 1.08 s  ClockTime = 2 s

Courant Number mean: 0.0202052 max: 0.0445069
Time = 0.00975

PIMPLE: iteration 1
diagonal:  Solving for rho, Initial residual = 0, Final residual = 0, No Iterations 0
smoothSolver:  Solving for Ux, Initial residual = 0.000963086, Final residual = 3.53917e-17, No Iterations 1
smoothSolver:  Solving for e, Initial residual = 0.00151781, Final residual = 3.36586e-17, No Iterations 4
smoothSolver:  Solving for p, Initial residual = 0.000993661, Final residual = 7.38518e-17, No Iterations 3
diagonal:  Solving for rho, Initial residual = 0, Final residual = 0, No Iterations 0
time step continuity errors : sum local = 1.40708e-16, global = -2.93348e-17, cumulative = 2.81437e-14
ExecutionTime = 1.08 s  ClockTime = 2 s

Courant Number mean: 0.0202099 max: 0.0444018
Time = 0.00976

PIMPLE: iteration 1
diagonal:  Solving for rho, Initial residual = 0, Final residual = 0, No Iterations 0
smoothSolver:  Solving for Ux, Initial residual = 0.000969837, Final residual = 3.63044e-17, No Iterations 1
smoothSolver:  Solving for e, Initial residual = 0.00148137, Final residual = 3.67956e-17, No Iterations 4
smoothSolver:  Solving for p, Initial residual = 0.000984023, Final residual = 7.62525e-17, No Iterations 3
diagonal:  Solving for rho, Initial residual = 0, Final residual = 0, No Iterations 0
time step continuity errors : sum local = 1.55154e-16, global = -2.78482e-17, cumulative = 2.81158e-14
ExecutionTime = 1.08 s  ClockTime = 2 s

Courant Number mean: 0.0202139 max: 0.0442415
Time = 0.00977

PIMPLE: iteration 1
diagonal:  Solving for rho, Initial residual = 0, Final residual = 0, No Iterations 0
smoothSolver:  Solving for Ux, Initial residual = 0.000975019, Final residual = 3.78364e-17, No Iterations 1
smoothSolver:  Solving for e, Initial residual = 0.00144812, Final residual = 3.37287e-17, No Iterations 4
smoothSolver:  Solving for p, Initial residual = 0.000973035, Final residual = 7.64054e-17, No Iterations 3
diagonal:  Solving for rho, Initial residual = 0, Final residual = 0, No Iterations 0
time step continuity errors : sum local = 1.40758e-16, global = -2.53663e-17, cumulative = 2.80905e-14
ExecutionTime = 1.09 s  ClockTime = 2 s

Courant Number mean: 0.0202172 max: 0.0440283
Time = 0.00978

PIMPLE: iteration 1
diagonal:  Solving for rho, Initial residual = 0, Final residual = 0, No Iterations 0
smoothSolver:  Solving for Ux, Initial residual = 0.000978638, Final residual = 3.41623e-17, No Iterations 1
smoothSolver:  Solving for e, Initial residual = 0.00144829, Final residual = 3.64539e-17, No Iterations 4
smoothSolver:  Solving for p, Initial residual = 0.000961365, Final residual = 7.02677e-17, No Iterations 3
diagonal:  Solving for rho, Initial residual = 0, Final residual = 0, No Iterations 0
time step continuity errors : sum local = 1.75109e-16, global = 1.79088e-17, cumulative = 2.81084e-14
ExecutionTime = 1.09 s  ClockTime = 2 s

Courant Number mean: 0.0202199 max: 0.0437688
Time = 0.00979

PIMPLE: iteration 1
diagonal:  Solving for rho, Initial residual = 0, Final residual = 0, No Iterations 0
smoothSolver:  Solving for Ux, Initial residual = 0.000980728, Final residual = 3.56349e-17, No Iterations 1
smoothSolver:  Solving for e, Initial residual = 0.00144732, Final residual = 3.09657e-17, No Iterations 4
smoothSolver:  Solving for p, Initial residual = 0.000949586, Final residual = 7.76681e-17, No Iterations 3
diagonal:  Solving for rho, Initial residual = 0, Final residual = 0, No Iterations 0
time step continuity errors : sum local = 1.42799e-16, global = -3.23413e-17, cumulative = 2.8076e-14
ExecutionTime = 1.09 s  ClockTime = 2 s

Courant Number mean: 0.0202222 max: 0.0434699
Time = 0.0098

PIMPLE: iteration 1
diagonal:  Solving for rho, Initial residual = 0, Final residual = 0, No Iterations 0
smoothSolver:  Solving for Ux, Initial residual = 0.00098133, Final residual = 4.12977e-17, No Iterations 1
smoothSolver:  Solving for e, Initial residual = 0.00144463, Final residual = 3.40212e-17, No Iterations 4
smoothSolver:  Solving for p, Initial residual = 0.00094118, Final residual = 7.54406e-17, No Iterations 3
diagonal:  Solving for rho, Initial residual = 0, Final residual = 0, No Iterations 0
time step continuity errors : sum local = 1.62234e-16, global = -1.59248e-17, cumulative = 2.80601e-14
ExecutionTime = 1.09 s  ClockTime = 2 s

Courant Number mean: 0.020224 max: 0.0431383
Time = 0.00981

PIMPLE: iteration 1
diagonal:  Solving for rho, Initial residual = 0, Final residual = 0, No Iterations 0
smoothSolver:  Solving for Ux, Initial residual = 0.000980508, Final residual = 4.35799e-17, No Iterations 1
smoothSolver:  Solving for e, Initial residual = 0.00144195, Final residual = 3.34808e-17, No Iterations 4
smoothSolver:  Solving for p, Initial residual = 0.000935473, Final residual = 9.76353e-16, No Iterations 2
diagonal:  Solving for rho, Initial residual = 0, Final residual = 0, No Iterations 0
time step continuity errors : sum local = 8.68558e-16, global = -2.93169e-16, cumulative = 2.7767e-14
ExecutionTime = 1.09 s  ClockTime = 2 s

Courant Number mean: 0.0202254 max: 0.0427761
Time = 0.00982

PIMPLE: iteration 1
diagonal:  Solving for rho, Initial residual = 0, Final residual = 0, No Iterations 0
smoothSolver:  Solving for Ux, Initial residual = 0.000978398, Final residual = 3.92869e-17, No Iterations 1
smoothSolver:  Solving for e, Initial residual = 0.00143791, Final residual = 3.33099e-17, No Iterations 4
smoothSolver:  Solving for p, Initial residual = 0.000931573, Final residual = 9.87829e-16, No Iterations 2
diagonal:  Solving for rho, Initial residual = 0, Final residual = 0, No Iterations 0
time step continuity errors : sum local = 8.90622e-16, global = -3.17119e-16, cumulative = 2.74498e-14
ExecutionTime = 1.09 s  ClockTime = 2 s

Courant Number mean: 0.0202266 max: 0.0423905
Time = 0.00983

PIMPLE: iteration 1
diagonal:  Solving for rho, Initial residual = 0, Final residual = 0, No Iterations 0
smoothSolver:  Solving for Ux, Initial residual = 0.00097712, Final residual = 3.91271e-17, No Iterations 1
smoothSolver:  Solving for e, Initial residual = 0.00143527, Final residual = 3.64264e-17, No Iterations 4
smoothSolver:  Solving for p, Initial residual = 0.000926959, Final residual = 9.87752e-16, No Iterations 2
diagonal:  Solving for rho, Initial residual = 0, Final residual = 0, No Iterations 0
time step continuity errors : sum local = 9.07715e-16, global = -3.18173e-16, cumulative = 2.71317e-14
ExecutionTime = 1.09 s  ClockTime = 2 s

Courant Number mean: 0.0202277 max: 0.0419898
Time = 0.00984

PIMPLE: iteration 1
diagonal:  Solving for rho, Initial residual = 0, Final residual = 0, No Iterations 0
smoothSolver:  Solving for Ux, Initial residual = 0.00097619, Final residual = 4.20977e-17, No Iterations 1
smoothSolver:  Solving for e, Initial residual = 0.00143288, Final residual = 3.90923e-17, No Iterations 4
smoothSolver:  Solving for p, Initial residual = 0.000921383, Final residual = 9.60585e-16, No Iterations 2
diagonal:  Solving for rho, Initial residual = 0, Final residual = 0, No Iterations 0
time step continuity errors : sum local = 8.52603e-16, global = -3.07774e-16, cumulative = 2.68239e-14
ExecutionTime = 1.09 s  ClockTime = 2 s

Courant Number mean: 0.0202286 max: 0.0415785
Time = 0.00985

PIMPLE: iteration 1
diagonal:  Solving for rho, Initial residual = 0, Final residual = 0, No Iterations 0
smoothSolver:  Solving for Ux, Initial residual = 0.000974759, Final residual = 3.10345e-17, No Iterations 1
smoothSolver:  Solving for e, Initial residual = 0.00142913, Final residual = 3.28027e-17, No Iterations 4
smoothSolver:  Solving for p, Initial residual = 0.000914962, Final residual = 9.47082e-16, No Iterations 2
diagonal:  Solving for rho, Initial residual = 0, Final residual = 0, No Iterations 0
time step continuity errors : sum local = 8.99084e-16, global = -3.23272e-16, cumulative = 2.65006e-14
ExecutionTime = 1.09 s  ClockTime = 2 s

Courant Number mean: 0.0202295 max: 0.0411603
Time = 0.00986

PIMPLE: iteration 1
diagonal:  Solving for rho, Initial residual = 0, Final residual = 0, No Iterations 0
smoothSolver:  Solving for Ux, Initial residual = 0.0009722, Final residual = 3.67446e-17, No Iterations 1
smoothSolver:  Solving for e, Initial residual = 0.00142411, Final residual = 3.66092e-17, No Iterations 4
smoothSolver:  Solving for p, Initial residual = 0.000908831, Final residual = 9.47634e-16, No Iterations 2
diagonal:  Solving for rho, Initial residual = 0, Final residual = 0, No Iterations 0
time step continuity errors : sum local = 8.31993e-16, global = -2.65042e-16, cumulative = 2.62356e-14
ExecutionTime = 1.09 s  ClockTime = 2 s

Courant Number mean: 0.0202303 max: 0.0407369
Time = 0.00987

PIMPLE: iteration 1
diagonal:  Solving for rho, Initial residual = 0, Final residual = 0, No Iterations 0
smoothSolver:  Solving for Ux, Initial residual = 0.000968481, Final residual = 3.80123e-17, No Iterations 1
smoothSolver:  Solving for e, Initial residual = 0.00141802, Final residual = 2.98371e-17, No Iterations 4
smoothSolver:  Solving for p, Initial residual = 0.000903484, Final residual = 9.30705e-16, No Iterations 2
diagonal:  Solving for rho, Initial residual = 0, Final residual = 0, No Iterations 0
time step continuity errors : sum local = 8.48589e-16, global = -2.79541e-16, cumulative = 2.5956e-14
ExecutionTime = 1.1 s  ClockTime = 2 s

Courant Number mean: 0.0202313 max: 0.0403117
Time = 0.00988

PIMPLE: iteration 1
diagonal:  Solving for rho, Initial residual = 0, Final residual = 0, No Iterations 0
smoothSolver:  Solving for Ux, Initial residual = 0.000964182, Final residual = 4.08795e-17, No Iterations 1
smoothSolver:  Solving for e, Initial residual = 0.00141129, Final residual = 2.78848e-17, No Iterations 4
smoothSolver:  Solving for p, Initial residual = 0.000901414, Final residual = 9.3245e-16, No Iterations 2
diagonal:  Solving for rho, Initial residual = 0, Final residual = 0, No Iterations 0
time step continuity errors : sum local = 8.5024e-16, global = -3.04013e-16, cumulative = 2.5652e-14
ExecutionTime = 1.1 s  ClockTime = 2 s

Courant Number mean: 0.0202323 max: 0.0398879
Time = 0.00989

PIMPLE: iteration 1
diagonal:  Solving for rho, Initial residual = 0, Final residual = 0, No Iterations 0
smoothSolver:  Solving for Ux, Initial residual = 0.00096, Final residual = 3.33592e-17, No Iterations 1
smoothSolver:  Solving for e, Initial residual = 0.00140371, Final residual = 3.7834e-17, No Iterations 4
smoothSolver:  Solving for p, Initial residual = 0.000898518, Final residual = 9.21531e-16, No Iterations 2
diagonal:  Solving for rho, Initial residual = 0, Final residual = 0, No Iterations 0
time step continuity errors : sum local = 8.57873e-16, global = -3.07558e-16, cumulative = 2.53445e-14
ExecutionTime = 1.1 s  ClockTime = 2 s

Courant Number mean: 0.0202335 max: 0.039467
Time = 0.0099

PIMPLE: iteration 1
diagonal:  Solving for rho, Initial residual = 0, Final residual = 0, No Iterations 0
smoothSolver:  Solving for Ux, Initial residual = 0.000961546, Final residual = 3.67663e-17, No Iterations 1
smoothSolver:  Solving for e, Initial residual = 0.00139645, Final residual = 3.89543e-17, No Iterations 4
smoothSolver:  Solving for p, Initial residual = 0.00089488, Final residual = 9.16387e-16, No Iterations 2
diagonal:  Solving for rho, Initial residual = 0, Final residual = 0, No Iterations 0
time step continuity errors : sum local = 8.56035e-16, global = -2.86674e-16, cumulative = 2.50578e-14
ExecutionTime = 1.1 s  ClockTime = 2 s

Courant Number mean: 0.0202348 max: 0.0390501
Time = 0.00991

PIMPLE: iteration 1
diagonal:  Solving for rho, Initial residual = 0, Final residual = 0, No Iterations 0
smoothSolver:  Solving for Ux, Initial residual = 0.000966297, Final residual = 4.0414e-17, No Iterations 1
smoothSolver:  Solving for e, Initial residual = 0.00139227, Final residual = 3.36372e-17, No Iterations 4
smoothSolver:  Solving for p, Initial residual = 0.000890829, Final residual = 9.08905e-16, No Iterations 2
diagonal:  Solving for rho, Initial residual = 0, Final residual = 0, No Iterations 0
time step continuity errors : sum local = 8.22282e-16, global = -2.89718e-16, cumulative = 2.47681e-14
ExecutionTime = 1.1 s  ClockTime = 2 s

Courant Number mean: 0.0202363 max: 0.0386388
Time = 0.00992

PIMPLE: iteration 1
diagonal:  Solving for rho, Initial residual = 0, Final residual = 0, No Iterations 0
smoothSolver:  Solving for Ux, Initial residual = 0.000971176, Final residual = 3.7982e-17, No Iterations 1
smoothSolver:  Solving for e, Initial residual = 0.00138725, Final residual = 3.03583e-17, No Iterations 4
smoothSolver:  Solving for p, Initial residual = 0.000888344, Final residual = 9.21983e-16, No Iterations 2
diagonal:  Solving for rho, Initial residual = 0, Final residual = 0, No Iterations 0
time step continuity errors : sum local = 8.16446e-16, global = -2.99746e-16, cumulative = 2.44683e-14
ExecutionTime = 1.1 s  ClockTime = 2 s

Courant Number mean: 0.0202379 max: 0.038238
Time = 0.00993

PIMPLE: iteration 1
diagonal:  Solving for rho, Initial residual = 0, Final residual = 0, No Iterations 0
smoothSolver:  Solving for Ux, Initial residual = 0.000974766, Final residual = 4.031e-17, No Iterations 1
smoothSolver:  Solving for e, Initial residual = 0.00138097, Final residual = 3.45426e-17, No Iterations 4
smoothSolver:  Solving for p, Initial residual = 0.000885164, Final residual = 9.09764e-16, No Iterations 2
diagonal:  Solving for rho, Initial residual = 0, Final residual = 0, No Iterations 0
time step continuity errors : sum local = 8.13101e-16, global = -2.94313e-16, cumulative = 2.4174e-14
ExecutionTime = 1.1 s  ClockTime = 2 s

Courant Number mean: 0.0202398 max: 0.0378442
Time = 0.00994

PIMPLE: iteration 1
diagonal:  Solving for rho, Initial residual = 0, Final residual = 0, No Iterations 0
smoothSolver:  Solving for Ux, Initial residual = 0.000977114, Final residual = 3.68981e-17, No Iterations 1
smoothSolver:  Solving for e, Initial residual = 0.00137499, Final residual = 4.18709e-17, No Iterations 4
smoothSolver:  Solving for p, Initial residual = 0.000881533, Final residual = 9.12124e-16, No Iterations 2
diagonal:  Solving for rho, Initial residual = 0, Final residual = 0, No Iterations 0
time step continuity errors : sum local = 8.09754e-16, global = -2.85884e-16, cumulative = 2.38881e-14
ExecutionTime = 1.1 s  ClockTime = 2 s

Courant Number mean: 0.0202417 max: 0.0374589
Time = 0.00995

PIMPLE: iteration 1
diagonal:  Solving for rho, Initial residual = 0, Final residual = 0, No Iterations 0
smoothSolver:  Solving for Ux, Initial residual = 0.000978279, Final residual = 3.87128e-17, No Iterations 1
smoothSolver:  Solving for e, Initial residual = 0.00136815, Final residual = 3.3996e-17, No Iterations 4
smoothSolver:  Solving for p, Initial residual = 0.000876985, Final residual = 8.92914e-16, No Iterations 2
diagonal:  Solving for rho, Initial residual = 0, Final residual = 0, No Iterations 0
time step continuity errors : sum local = 8.089e-16, global = -2.6797e-16, cumulative = 2.36202e-14
ExecutionTime = 1.1 s  ClockTime = 2 s

Courant Number mean: 0.0202439 max: 0.0370829
Time = 0.00996

PIMPLE: iteration 1
diagonal:  Solving for rho, Initial residual = 0, Final residual = 0, No Iterations 0
smoothSolver:  Solving for Ux, Initial residual = 0.000978263, Final residual = 3.58923e-17, No Iterations 1
smoothSolver:  Solving for e, Initial residual = 0.00136026, Final residual = 3.44638e-17, No Iterations 4
smoothSolver:  Solving for p, Initial residual = 0.000872859, Final residual = 8.97038e-16, No Iterations 2
diagonal:  Solving for rho, Initial residual = 0, Final residual = 0, No Iterations 0
time step continuity errors : sum local = 8.03054e-16, global = -2.81992e-16, cumulative = 2.33382e-14
ExecutionTime = 1.1 s  ClockTime = 2 s

Courant Number mean: 0.0202462 max: 0.0367162
Time = 0.00997

PIMPLE: iteration 1
diagonal:  Solving for rho, Initial residual = 0, Final residual = 0, No Iterations 0
smoothSolver:  Solving for Ux, Initial residual = 0.000977137, Final residual = 3.78696e-17, No Iterations 1
smoothSolver:  Solving for e, Initial residual = 0.0013514, Final residual = 3.66688e-17, No Iterations 4
smoothSolver:  Solving for p, Initial residual = 0.000868599, Final residual = 8.95988e-16, No Iterations 2
diagonal:  Solving for rho, Initial residual = 0, Final residual = 0, No Iterations 0
time step continuity errors : sum local = 8.3764e-16, global = -3.07501e-16, cumulative = 2.30307e-14
ExecutionTime = 1.1 s  ClockTime = 2 s

Courant Number mean: 0.0202487 max: 0.0363599
Time = 0.00998

PIMPLE: iteration 1
diagonal:  Solving for rho, Initial residual = 0, Final residual = 0, No Iterations 0
smoothSolver:  Solving for Ux, Initial residual = 0.00097495, Final residual = 4.41671e-17, No Iterations 1
smoothSolver:  Solving for e, Initial residual = 0.00134169, Final residual = 4.19629e-17, No Iterations 4
smoothSolver:  Solving for p, Initial residual = 0.000865456, Final residual = 8.86925e-16, No Iterations 2
diagonal:  Solving for rho, Initial residual = 0, Final residual = 0, No Iterations 0
time step continuity errors : sum local = 8.06332e-16, global = -2.63119e-16, cumulative = 2.27675e-14
ExecutionTime = 1.1 s  ClockTime = 2 s

Courant Number mean: 0.0202514 max: 0.036015
Time = 0.00999

PIMPLE: iteration 1
diagonal:  Solving for rho, Initial residual = 0, Final residual = 0, No Iterations 0
smoothSolver:  Solving for Ux, Initial residual = 0.000971749, Final residual = 4.00461e-17, No Iterations 1
smoothSolver:  Solving for e, Initial residual = 0.00133291, Final residual = 3.19469e-17, No Iterations 4
smoothSolver:  Solving for p, Initial residual = 0.000863831, Final residual = 8.7515e-16, No Iterations 2
diagonal:  Solving for rho, Initial residual = 0, Final residual = 0, No Iterations 0
time step continuity errors : sum local = 7.97484e-16, global = -2.79144e-16, cumulative = 2.24884e-14
ExecutionTime = 1.1 s  ClockTime = 2 s

Courant Number mean: 0.0202541 max: 0.0356816
Time = 0.01

PIMPLE: iteration 1
diagonal:  Solving for rho, Initial residual = 0, Final residual = 0, No Iterations 0
smoothSolver:  Solving for Ux, Initial residual = 0.000970557, Final residual = 4.10994e-17, No Iterations 1
smoothSolver:  Solving for e, Initial residual = 0.001324, Final residual = 3.57016e-17, No Iterations 4
smoothSolver:  Solving for p, Initial residual = 0.00086214, Final residual = 8.86315e-16, No Iterations 2
diagonal:  Solving for rho, Initial residual = 0, Final residual = 0, No Iterations 0
time step continuity errors : sum local = 8.11106e-16, global = -2.29747e-16, cumulative = 2.22587e-14
ExecutionTime = 1.11 s  ClockTime = 2 s

    functionObjects::mag mag(U) writing field: mag(U)
End

