/*---------------------------------------------------------------------------*\
| =========                 |                                                 |
| \\      /  F ield         | OpenFOAM: The Open Source CFD Toolbox           |
|  \\    /   O peration     | Version:  2012                                  |
|   \\  /    A nd           | Website:  www.openfoam.com                      |
|    \\/     M anipulation  |                                                 |
\*---------------------------------------------------------------------------*/
Build  : _269d0ffd5c-20210619 OPENFOAM=2012 patch=210618
Arch   : "LSB;label=32;scalar=64"
Exec   : mhdPimpleFoam
Date   : Apr 04 2022
Time   : 11:28:15
Host   : gabrielmarconcini-Lenovo-G50-80
PID    : 50537
I/O    : uncollated
Case   : /home/gabrielmarconcini/Documentos/TCC/PTCC/ShockTube/sim/NewSolver/ShockTube3_100
nProcs : 1
trapFpe: Floating point exception trapping enabled (FOAM_SIGFPE).
fileModificationChecking : Monitoring run-time modified files using timeStampMaster (fileModificationSkew 5, maxFileModificationPolls 20)
allowSystemOperations : Allowing user-supplied system call operations

// * * * * * * * * * * * * * * * * * * * * * * * * * * * * * * * * * * * * * //
Create time

Create mesh for time = 0


PIMPLE: no residual control data found. Calculations will employ 3 corrector loops

Reading thermophysical properties

Selecting thermodynamics package 
{
    type            hePsiThermo;
    mixture         pureMixture;
    transport       const;
    thermo          eConst;
    equationOfState perfectGas;
    specie          specie;
    energy          sensibleInternalEnergy;
}

Reading field U

Reading/calculating face flux field phi

Creating turbulence model

Selecting turbulence model type laminar
Selecting laminar stress model Stokes
Creating field dpdt

Creating field kinetic energy K

No MRF models present

No finite volume options present
Courant Number mean: 0 max: 0

Starting time loop

Courant Number mean: 0 max: 0
Time = 1e-05

PIMPLE: iteration 1
diagonal:  Solving for rho, Initial residual = 0, Final residual = 0, No Iterations 0
smoothSolver:  Solving for Ux, Initial residual = 1, Final residual = 0, No Iterations 1
smoothSolver:  Solving for e, Initial residual = 5.71873e-17, Final residual = 5.71873e-17, No Iterations 0
smoothSolver:  Solving for p, Initial residual = 1.78207e-05, Final residual = 1.74233e-17, No Iterations 2
diagonal:  Solving for rho, Initial residual = 0, Final residual = 0, No Iterations 0
time step continuity errors : sum local = 1.22669e-16, global = 9.89265e-18, cumulative = 9.89265e-18
PIMPLE: iteration 2
smoothSolver:  Solving for Ux, Initial residual = 0.000459566, Final residual = 5.39909e-18, No Iterations 1
smoothSolver:  Solving for e, Initial residual = 0.000130082, Final residual = 5.28729e-17, No Iterations 1
smoothSolver:  Solving for p, Initial residual = 1.63382e-05, Final residual = 1.76578e-17, No Iterations 2
diagonal:  Solving for rho, Initial residual = 0, Final residual = 0, No Iterations 0
time step continuity errors : sum local = 1.16239e-16, global = -1.4839e-18, cumulative = 8.40875e-18
PIMPLE: iteration 3
smoothSolver:  Solving for Ux, Initial residual = 2.76489e-06, Final residual = 6.59866e-18, No Iterations 1
smoothSolver:  Solving for e, Initial residual = 9.35109e-07, Final residual = 3.84171e-17, No Iterations 2
smoothSolver:  Solving for p, Initial residual = 5.04466e-08, Final residual = 5.54031e-18, No Iterations 2
diagonal:  Solving for rho, Initial residual = 0, Final residual = 0, No Iterations 0
time step continuity errors : sum local = 1.02636e-16, global = 2.49789e-17, cumulative = 3.33877e-17
ExecutionTime = 0.05 s  ClockTime = 0 s

Courant Number mean: 4.03852e-05 max: 0.00357976
Time = 2e-05

PIMPLE: iteration 1
diagonal:  Solving for rho, Initial residual = 0, Final residual = 0, No Iterations 0
smoothSolver:  Solving for Ux, Initial residual = 0.12738, Final residual = 2.82812e-17, No Iterations 1
smoothSolver:  Solving for e, Initial residual = 8.08273e-05, Final residual = 4.83484e-17, No Iterations 2
smoothSolver:  Solving for p, Initial residual = 5.01748e-05, Final residual = 4.66159e-17, No Iterations 2
diagonal:  Solving for rho, Initial residual = 0, Final residual = 0, No Iterations 0
time step continuity errors : sum local = 2.1838e-16, global = 2.49789e-17, cumulative = 5.83666e-17
PIMPLE: iteration 2
smoothSolver:  Solving for Ux, Initial residual = 0.000827643, Final residual = 9.42105e-19, No Iterations 1
smoothSolver:  Solving for e, Initial residual = 0.000192893, Final residual = 4.11369e-17, No Iterations 2
smoothSolver:  Solving for p, Initial residual = 2.38883e-05, Final residual = 2.20968e-17, No Iterations 2
diagonal:  Solving for rho, Initial residual = 0, Final residual = 0, No Iterations 0
time step continuity errors : sum local = 1.38497e-16, global = 1.13765e-17, cumulative = 6.97432e-17
PIMPLE: iteration 3
smoothSolver:  Solving for Ux, Initial residual = 8.49289e-06, Final residual = 3.61842e-18, No Iterations 1
smoothSolver:  Solving for e, Initial residual = 3.17565e-06, Final residual = 5.32942e-17, No Iterations 2
smoothSolver:  Solving for p, Initial residual = 2.93591e-07, Final residual = 6.29775e-18, No Iterations 2
diagonal:  Solving for rho, Initial residual = 0, Final residual = 0, No Iterations 0
time step continuity errors : sum local = 1.50121e-16, global = 5.66354e-17, cumulative = 1.26379e-16
ExecutionTime = 0.05 s  ClockTime = 0 s

Courant Number mean: 0.000119123 max: 0.00963526
Time = 3e-05

PIMPLE: iteration 1
diagonal:  Solving for rho, Initial residual = 0, Final residual = 0, No Iterations 0
smoothSolver:  Solving for Ux, Initial residual = 0.0679564, Final residual = 1.30103e-17, No Iterations 1
smoothSolver:  Solving for e, Initial residual = 0.000198432, Final residual = 5.11289e-17, No Iterations 2
smoothSolver:  Solving for p, Initial residual = 9.45812e-05, Final residual = 8.09427e-17, No Iterations 2
diagonal:  Solving for rho, Initial residual = 0, Final residual = 0, No Iterations 0
time step continuity errors : sum local = 2.01563e-16, global = -8.48295e-17, cumulative = 4.15491e-17
PIMPLE: iteration 2
smoothSolver:  Solving for Ux, Initial residual = 0.000823932, Final residual = 7.89663e-18, No Iterations 1
smoothSolver:  Solving for e, Initial residual = 0.000193056, Final residual = 5.32812e-16, No Iterations 2
smoothSolver:  Solving for p, Initial residual = 2.36338e-05, Final residual = 2.34932e-17, No Iterations 2
diagonal:  Solving for rho, Initial residual = 0, Final residual = 0, No Iterations 0
time step continuity errors : sum local = 9.10124e-17, global = -3.06672e-17, cumulative = 1.08819e-17
PIMPLE: iteration 3
smoothSolver:  Solving for Ux, Initial residual = 1.15766e-05, Final residual = 4.55917e-18, No Iterations 1
smoothSolver:  Solving for e, Initial residual = 4.37636e-06, Final residual = 5.98427e-17, No Iterations 2
smoothSolver:  Solving for p, Initial residual = 4.29367e-07, Final residual = 5.29135e-18, No Iterations 2
diagonal:  Solving for rho, Initial residual = 0, Final residual = 0, No Iterations 0
time step continuity errors : sum local = 5.66354e-17, global = -2.49789e-17, cumulative = -1.4097e-17
ExecutionTime = 0.05 s  ClockTime = 0 s

Courant Number mean: 0.00019546 max: 0.0154555
Time = 4e-05

PIMPLE: iteration 1
diagonal:  Solving for rho, Initial residual = 0, Final residual = 0, No Iterations 0
smoothSolver:  Solving for Ux, Initial residual = 0.0462152, Final residual = 1.37514e-17, No Iterations 1
smoothSolver:  Solving for e, Initial residual = 0.000346513, Final residual = 6.66536e-16, No Iterations 2
smoothSolver:  Solving for p, Initial residual = 0.000137441, Final residual = 1.19322e-16, No Iterations 2
diagonal:  Solving for rho, Initial residual = 0, Final residual = 0, No Iterations 0
time step continuity errors : sum local = 2.56962e-16, global = -9.02704e-17, cumulative = -1.04367e-16
PIMPLE: iteration 2
smoothSolver:  Solving for Ux, Initial residual = 0.000695375, Final residual = 4.67734e-18, No Iterations 1
smoothSolver:  Solving for e, Initial residual = 0.00017281, Final residual = 1.99049e-17, No Iterations 3
smoothSolver:  Solving for p, Initial residual = 2.09662e-05, Final residual = 2.25615e-17, No Iterations 2
diagonal:  Solving for rho, Initial residual = 0, Final residual = 0, No Iterations 0
time step continuity errors : sum local = 8.2109e-17, global = -1.38497e-17, cumulative = -1.18217e-16
PIMPLE: iteration 3
smoothSolver:  Solving for Ux, Initial residual = 1.20982e-05, Final residual = 5.57076e-18, No Iterations 1
smoothSolver:  Solving for e, Initial residual = 4.61384e-06, Final residual = 1.91679e-16, No Iterations 2
smoothSolver:  Solving for p, Initial residual = 4.48677e-07, Final residual = 7.63011e-18, No Iterations 2
diagonal:  Solving for rho, Initial residual = 0, Final residual = 0, No Iterations 0
time step continuity errors : sum local = 6.50442e-17, global = -3.93233e-17, cumulative = -1.5754e-16
ExecutionTime = 0.05 s  ClockTime = 0 s

Courant Number mean: 0.000254891 max: 0.0201174
Time = 5e-05

PIMPLE: iteration 1
diagonal:  Solving for rho, Initial residual = 0, Final residual = 0, No Iterations 0
smoothSolver:  Solving for Ux, Initial residual = 0.0348749, Final residual = 6.62853e-18, No Iterations 1
smoothSolver:  Solving for e, Initial residual = 0.000479659, Final residual = 1.40966e-17, No Iterations 3
smoothSolver:  Solving for p, Initial residual = 0.00017606, Final residual = 1.5152e-16, No Iterations 2
diagonal:  Solving for rho, Initial residual = 0, Final residual = 0, No Iterations 0
time step continuity errors : sum local = 3.21264e-16, global = -1.13518e-16, cumulative = -2.71059e-16
PIMPLE: iteration 2
smoothSolver:  Solving for Ux, Initial residual = 0.00066826, Final residual = 9.6015e-19, No Iterations 1
smoothSolver:  Solving for e, Initial residual = 0.000148557, Final residual = 2.2029e-17, No Iterations 3
smoothSolver:  Solving for p, Initial residual = 1.7984e-05, Final residual = 1.92445e-17, No Iterations 2
diagonal:  Solving for rho, Initial residual = 0, Final residual = 0, No Iterations 0
time step continuity errors : sum local = 7.61734e-17, global = -2.62155e-17, cumulative = -2.97274e-16
PIMPLE: iteration 3
smoothSolver:  Solving for Ux, Initial residual = 1.30831e-05, Final residual = 1.5867e-17, No Iterations 1
smoothSolver:  Solving for e, Initial residual = 4.31885e-06, Final residual = 9.51349e-16, No Iterations 2
smoothSolver:  Solving for p, Initial residual = 4.37917e-07, Final residual = 8.2028e-18, No Iterations 2
diagonal:  Solving for rho, Initial residual = 0, Final residual = 0, No Iterations 0
time step continuity errors : sum local = 6.82593e-17, global = -2.12692e-17, cumulative = -3.18543e-16
ExecutionTime = 0.06 s  ClockTime = 0 s

Courant Number mean: 0.00031256 max: 0.024231
Time = 6e-05

PIMPLE: iteration 1
diagonal:  Solving for rho, Initial residual = 0, Final residual = 0, No Iterations 0
smoothSolver:  Solving for Ux, Initial residual = 0.0279422, Final residual = 1.65378e-17, No Iterations 1
smoothSolver:  Solving for e, Initial residual = 0.000594929, Final residual = 1.50449e-17, No Iterations 3
smoothSolver:  Solving for p, Initial residual = 0.00021023, Final residual = 1.76962e-16, No Iterations 2
diagonal:  Solving for rho, Initial residual = 0, Final residual = 0, No Iterations 0
time step continuity errors : sum local = 3.74684e-16, global = -1.244e-16, cumulative = -4.42943e-16
PIMPLE: iteration 2
smoothSolver:  Solving for Ux, Initial residual = 0.000567304, Final residual = 5.39749e-18, No Iterations 1
smoothSolver:  Solving for e, Initial residual = 0.000121794, Final residual = 2.28673e-17, No Iterations 3
smoothSolver:  Solving for p, Initial residual = 1.47724e-05, Final residual = 1.73454e-17, No Iterations 2
diagonal:  Solving for rho, Initial residual = 0, Final residual = 0, No Iterations 0
time step continuity errors : sum local = 8.63134e-17, global = -1.26131e-17, cumulative = -4.55556e-16
PIMPLE: iteration 3
smoothSolver:  Solving for Ux, Initial residual = 1.36361e-05, Final residual = 3.92607e-18, No Iterations 1
smoothSolver:  Solving for e, Initial residual = 3.9772e-06, Final residual = 1.77992e-17, No Iterations 3
smoothSolver:  Solving for p, Initial residual = 4.2119e-07, Final residual = 1.07976e-17, No Iterations 2
diagonal:  Solving for rho, Initial residual = 0, Final residual = 0, No Iterations 0
time step continuity errors : sum local = 6.57861e-17, global = -3.3635e-17, cumulative = -4.89191e-16
ExecutionTime = 0.06 s  ClockTime = 0 s

Courant Number mean: 0.000358467 max: 0.0273629
Time = 7e-05

PIMPLE: iteration 1
diagonal:  Solving for rho, Initial residual = 0, Final residual = 0, No Iterations 0
smoothSolver:  Solving for Ux, Initial residual = 0.0232653, Final residual = 9.60224e-18, No Iterations 1
smoothSolver:  Solving for e, Initial residual = 0.000689805, Final residual = 2.74786e-17, No Iterations 3
smoothSolver:  Solving for p, Initial residual = 0.00023981, Final residual = 2.03466e-16, No Iterations 2
diagonal:  Solving for rho, Initial residual = 0, Final residual = 0, No Iterations 0
time step continuity errors : sum local = 4.12276e-16, global = -1.13023e-16, cumulative = -6.02215e-16
PIMPLE: iteration 2
smoothSolver:  Solving for Ux, Initial residual = 0.000498782, Final residual = 8.36278e-18, No Iterations 1
smoothSolver:  Solving for e, Initial residual = 9.49676e-05, Final residual = 3.77985e-17, No Iterations 3
smoothSolver:  Solving for p, Initial residual = 1.16631e-05, Final residual = 1.50602e-17, No Iterations 2
diagonal:  Solving for rho, Initial residual = 0, Final residual = 0, No Iterations 0
time step continuity errors : sum local = 8.33456e-17, global = -1.55809e-17, cumulative = -6.17796e-16
PIMPLE: iteration 3
smoothSolver:  Solving for Ux, Initial residual = 2.24616e-05, Final residual = 4.14004e-18, No Iterations 1
smoothSolver:  Solving for e, Initial residual = 3.672e-06, Final residual = 1.5141e-17, No Iterations 3
smoothSolver:  Solving for p, Initial residual = 4.39732e-07, Final residual = 6.48812e-18, No Iterations 2
diagonal:  Solving for rho, Initial residual = 0, Final residual = 0, No Iterations 0
time step continuity errors : sum local = 6.13344e-17, global = -1.53336e-17, cumulative = -6.33129e-16
ExecutionTime = 0.06 s  ClockTime = 0 s

Courant Number mean: 0.00039758 max: 0.029772
Time = 8e-05

PIMPLE: iteration 1
diagonal:  Solving for rho, Initial residual = 0, Final residual = 0, No Iterations 0
smoothSolver:  Solving for Ux, Initial residual = 0.0199272, Final residual = 1.56226e-17, No Iterations 1
smoothSolver:  Solving for e, Initial residual = 0.000764522, Final residual = 1.08128e-16, No Iterations 3
smoothSolver:  Solving for p, Initial residual = 0.00026517, Final residual = 2.25192e-16, No Iterations 2
diagonal:  Solving for rho, Initial residual = 0, Final residual = 0, No Iterations 0
time step continuity errors : sum local = 4.60503e-16, global = -1.16239e-16, cumulative = -7.49368e-16
PIMPLE: iteration 2
smoothSolver:  Solving for Ux, Initial residual = 0.000426544, Final residual = 6.53096e-18, No Iterations 1
smoothSolver:  Solving for e, Initial residual = 6.79847e-05, Final residual = 8.26626e-17, No Iterations 3
smoothSolver:  Solving for p, Initial residual = 8.58743e-06, Final residual = 1.19718e-17, No Iterations 2
diagonal:  Solving for rho, Initial residual = 0, Final residual = 0, No Iterations 0
time step continuity errors : sum local = 6.38076e-17, global = -1.03873e-17, cumulative = -7.59755e-16
PIMPLE: iteration 3
smoothSolver:  Solving for Ux, Initial residual = 2.99758e-05, Final residual = 7.56453e-18, No Iterations 1
smoothSolver:  Solving for e, Initial residual = 3.78941e-06, Final residual = 2.68251e-17, No Iterations 3
smoothSolver:  Solving for p, Initial residual = 5.40953e-07, Final residual = 9.49798e-18, No Iterations 2
diagonal:  Solving for rho, Initial residual = 0, Final residual = 0, No Iterations 0
time step continuity errors : sum local = 6.28183e-17, global = -1.92907e-17, cumulative = -7.79046e-16
ExecutionTime = 0.06 s  ClockTime = 0 s

Courant Number mean: 0.000429503 max: 0.0314948
Time = 9e-05

PIMPLE: iteration 1
diagonal:  Solving for rho, Initial residual = 0, Final residual = 0, No Iterations 0
smoothSolver:  Solving for Ux, Initial residual = 0.0174364, Final residual = 9.41673e-18, No Iterations 1
smoothSolver:  Solving for e, Initial residual = 0.000819242, Final residual = 3.95045e-16, No Iterations 3
smoothSolver:  Solving for p, Initial residual = 0.000286769, Final residual = 2.45398e-16, No Iterations 2
diagonal:  Solving for rho, Initial residual = 0, Final residual = 0, No Iterations 0
time step continuity errors : sum local = 4.82514e-16, global = -1.50616e-16, cumulative = -9.29662e-16
PIMPLE: iteration 2
smoothSolver:  Solving for Ux, Initial residual = 0.000364808, Final residual = 1.18873e-17, No Iterations 1
smoothSolver:  Solving for e, Initial residual = 5.65535e-05, Final residual = 1.11176e-16, No Iterations 3
smoothSolver:  Solving for p, Initial residual = 7.319e-06, Final residual = 1.27798e-17, No Iterations 2
diagonal:  Solving for rho, Initial residual = 0, Final residual = 0, No Iterations 0
time step continuity errors : sum local = 6.2571e-17, global = -2.25058e-17, cumulative = -9.52167e-16
PIMPLE: iteration 3
smoothSolver:  Solving for Ux, Initial residual = 3.55743e-05, Final residual = 2.60237e-18, No Iterations 1
smoothSolver:  Solving for e, Initial residual = 5.53e-06, Final residual = 2.60787e-17, No Iterations 3
smoothSolver:  Solving for p, Initial residual = 7.46125e-07, Final residual = 8.3781e-18, No Iterations 2
diagonal:  Solving for rho, Initial residual = 0, Final residual = 0, No Iterations 0
time step continuity errors : sum local = 5.36676e-17, global = -3.23984e-17, cumulative = -9.84566e-16
ExecutionTime = 0.07 s  ClockTime = 0 s

Courant Number mean: 0.000455782 max: 0.0326604
Time = 0.0001

PIMPLE: iteration 1
diagonal:  Solving for rho, Initial residual = 0, Final residual = 0, No Iterations 0
smoothSolver:  Solving for Ux, Initial residual = 0.0155209, Final residual = 5.93229e-18, No Iterations 1
smoothSolver:  Solving for e, Initial residual = 0.000873107, Final residual = 6.56278e-16, No Iterations 3
smoothSolver:  Solving for p, Initial residual = 0.000306502, Final residual = 2.58661e-16, No Iterations 2
diagonal:  Solving for rho, Initial residual = 0, Final residual = 0, No Iterations 0
time step continuity errors : sum local = 5.09966e-16, global = -1.38497e-16, cumulative = -1.12306e-15
PIMPLE: iteration 2
smoothSolver:  Solving for Ux, Initial residual = 0.000311164, Final residual = 9.92523e-18, No Iterations 1
smoothSolver:  Solving for e, Initial residual = 4.73831e-05, Final residual = 1.11674e-16, No Iterations 3
smoothSolver:  Solving for p, Initial residual = 6.26418e-06, Final residual = 1.25979e-17, No Iterations 2
diagonal:  Solving for rho, Initial residual = 0, Final residual = 0, No Iterations 0
time step continuity errors : sum local = 6.13344e-17, global = -2.67101e-17, cumulative = -1.14977e-15
PIMPLE: iteration 3
smoothSolver:  Solving for Ux, Initial residual = 3.98264e-05, Final residual = 7.94597e-18, No Iterations 1
smoothSolver:  Solving for e, Initial residual = 6.66168e-06, Final residual = 2.76375e-17, No Iterations 3
smoothSolver:  Solving for p, Initial residual = 8.78132e-07, Final residual = 7.67239e-18, No Iterations 2
diagonal:  Solving for rho, Initial residual = 0, Final residual = 0, No Iterations 0
time step continuity errors : sum local = 6.13344e-17, global = -2.76994e-17, cumulative = -1.17747e-15
ExecutionTime = 0.07 s  ClockTime = 0 s

Courant Number mean: 0.000477539 max: 0.0333762
Time = 0.00011

PIMPLE: iteration 1
diagonal:  Solving for rho, Initial residual = 0, Final residual = 0, No Iterations 0
smoothSolver:  Solving for Ux, Initial residual = 0.0140118, Final residual = 6.72069e-18, No Iterations 1
smoothSolver:  Solving for e, Initial residual = 0.000923878, Final residual = 8.73108e-16, No Iterations 3
smoothSolver:  Solving for p, Initial residual = 0.000324062, Final residual = 2.72466e-16, No Iterations 2
diagonal:  Solving for rho, Initial residual = 0, Final residual = 0, No Iterations 0
time step continuity errors : sum local = 5.27278e-16, global = -1.53336e-16, cumulative = -1.33081e-15
PIMPLE: iteration 2
smoothSolver:  Solving for Ux, Initial residual = 0.000266057, Final residual = 6.9995e-18, No Iterations 1
smoothSolver:  Solving for e, Initial residual = 3.16163e-05, Final residual = 2.06007e-17, No Iterations 2
smoothSolver:  Solving for p, Initial residual = 4.2854e-06, Final residual = 9.00031e-18, No Iterations 2
diagonal:  Solving for rho, Initial residual = 0, Final residual = 0, No Iterations 0
time step continuity errors : sum local = 7.79046e-17, global = -2.15165e-17, cumulative = -1.35232e-15
PIMPLE: iteration 3
smoothSolver:  Solving for Ux, Initial residual = 4.25937e-05, Final residual = 3.65632e-18, No Iterations 1
smoothSolver:  Solving for e, Initial residual = 7.69224e-06, Final residual = 1.74658e-17, No Iterations 2
smoothSolver:  Solving for p, Initial residual = 9.8832e-07, Final residual = 8.19787e-18, No Iterations 2
diagonal:  Solving for rho, Initial residual = 0, Final residual = 0, No Iterations 0
time step continuity errors : sum local = 6.38076e-17, global = -2.76994e-17, cumulative = -1.38002e-15
ExecutionTime = 0.07 s  ClockTime = 0 s

Courant Number mean: 0.000495848 max: 0.0337414
Time = 0.00012

PIMPLE: iteration 1
diagonal:  Solving for rho, Initial residual = 0, Final residual = 0, No Iterations 0
smoothSolver:  Solving for Ux, Initial residual = 0.0127995, Final residual = 7.87907e-18, No Iterations 1
smoothSolver:  Solving for e, Initial residual = 0.000959855, Final residual = 9.37922e-17, No Iterations 2
smoothSolver:  Solving for p, Initial residual = 0.000336448, Final residual = 2.81563e-16, No Iterations 2
diagonal:  Solving for rho, Initial residual = 0, Final residual = 0, No Iterations 0
time step continuity errors : sum local = 5.59182e-16, global = -1.42207e-16, cumulative = -1.52223e-15
PIMPLE: iteration 2
smoothSolver:  Solving for Ux, Initial residual = 0.000229243, Final residual = 1.81856e-17, No Iterations 1
smoothSolver:  Solving for e, Initial residual = 3.15483e-05, Final residual = 2.26189e-17, No Iterations 2
smoothSolver:  Solving for p, Initial residual = 3.2245e-06, Final residual = 9.47925e-18, No Iterations 2
diagonal:  Solving for rho, Initial residual = 0, Final residual = 0, No Iterations 0
time step continuity errors : sum local = 8.11197e-17, global = -1.68175e-17, cumulative = -1.53905e-15
PIMPLE: iteration 3
smoothSolver:  Solving for Ux, Initial residual = 4.31243e-05, Final residual = 4.42667e-18, No Iterations 1
smoothSolver:  Solving for e, Initial residual = 8.85107e-06, Final residual = 2.19849e-17, No Iterations 2
smoothSolver:  Solving for p, Initial residual = 1.11596e-06, Final residual = 9.22203e-18, No Iterations 2
diagonal:  Solving for rho, Initial residual = 0, Final residual = 0, No Iterations 0
time step continuity errors : sum local = 6.60334e-17, global = -1.75594e-17, cumulative = -1.55661e-15
ExecutionTime = 0.07 s  ClockTime = 0 s

Courant Number mean: 0.000511623 max: 0.0338401
Time = 0.00013

PIMPLE: iteration 1
diagonal:  Solving for rho, Initial residual = 0, Final residual = 0, No Iterations 0
smoothSolver:  Solving for Ux, Initial residual = 0.0118042, Final residual = 1.19372e-17, No Iterations 1
smoothSolver:  Solving for e, Initial residual = 0.000966784, Final residual = 1.49511e-16, No Iterations 2
smoothSolver:  Solving for p, Initial residual = 0.000346548, Final residual = 2.89247e-16, No Iterations 2
diagonal:  Solving for rho, Initial residual = 0, Final residual = 0, No Iterations 0
time step continuity errors : sum local = 5.56956e-16, global = -1.39486e-16, cumulative = -1.69609e-15
PIMPLE: iteration 2
smoothSolver:  Solving for Ux, Initial residual = 0.000198948, Final residual = 2.00264e-18, No Iterations 1
smoothSolver:  Solving for e, Initial residual = 3.16596e-05, Final residual = 2.24321e-17, No Iterations 2
smoothSolver:  Solving for p, Initial residual = 3.20042e-06, Final residual = 9.94629e-18, No Iterations 2
diagonal:  Solving for rho, Initial residual = 0, Final residual = 0, No Iterations 0
time step continuity errors : sum local = 6.45495e-17, global = -2.59682e-17, cumulative = -1.72206e-15
PIMPLE: iteration 3
smoothSolver:  Solving for Ux, Initial residual = 4.30088e-05, Final residual = 1.58321e-17, No Iterations 1
smoothSolver:  Solving for e, Initial residual = 9.92795e-06, Final residual = 2.02524e-17, No Iterations 2
smoothSolver:  Solving for p, Initial residual = 1.23044e-06, Final residual = 8.96919e-18, No Iterations 2
diagonal:  Solving for rho, Initial residual = 0, Final residual = 0, No Iterations 0
time step continuity errors : sum local = 5.49042e-17, global = -2.47316e-17, cumulative = -1.74679e-15
ExecutionTime = 0.08 s  ClockTime = 0 s

Courant Number mean: 0.000525614 max: 0.0337414
Time = 0.00014

PIMPLE: iteration 1
diagonal:  Solving for rho, Initial residual = 0, Final residual = 0, No Iterations 0
smoothSolver:  Solving for Ux, Initial residual = 0.0109619, Final residual = 1.66128e-17, No Iterations 1
smoothSolver:  Solving for e, Initial residual = 0.000964024, Final residual = 2.4481e-16, No Iterations 2
smoothSolver:  Solving for p, Initial residual = 0.000354575, Final residual = 2.98258e-16, No Iterations 2
diagonal:  Solving for rho, Initial residual = 0, Final residual = 0, No Iterations 0
time step continuity errors : sum local = 5.77236e-16, global = -1.51852e-16, cumulative = -1.89865e-15
PIMPLE: iteration 2
smoothSolver:  Solving for Ux, Initial residual = 0.000173714, Final residual = 9.7962e-18, No Iterations 1
smoothSolver:  Solving for e, Initial residual = 3.19478e-05, Final residual = 3.12697e-17, No Iterations 2
smoothSolver:  Solving for p, Initial residual = 4.3564e-06, Final residual = 8.66722e-18, No Iterations 2
diagonal:  Solving for rho, Initial residual = 0, Final residual = 0, No Iterations 0
time step continuity errors : sum local = 6.85066e-17, global = -3.88286e-17, cumulative = -1.93748e-15
PIMPLE: iteration 3
smoothSolver:  Solving for Ux, Initial residual = 4.19466e-05, Final residual = 1.30135e-17, No Iterations 1
smoothSolver:  Solving for e, Initial residual = 1.09223e-05, Final residual = 1.7599e-17, No Iterations 2
smoothSolver:  Solving for p, Initial residual = 1.33305e-06, Final residual = 8.44026e-18, No Iterations 2
diagonal:  Solving for rho, Initial residual = 0, Final residual = 0, No Iterations 0
time step continuity errors : sum local = 5.44096e-17, global = -2.62155e-17, cumulative = -1.96369e-15
ExecutionTime = 0.08 s  ClockTime = 0 s

Courant Number mean: 0.000538427 max: 0.0335001
Time = 0.00015

PIMPLE: iteration 1
diagonal:  Solving for rho, Initial residual = 0, Final residual = 0, No Iterations 0
smoothSolver:  Solving for Ux, Initial residual = 0.0102333, Final residual = 1.17365e-17, No Iterations 1
smoothSolver:  Solving for e, Initial residual = 0.000953277, Final residual = 3.87463e-16, No Iterations 2
smoothSolver:  Solving for p, Initial residual = 0.000360821, Final residual = 2.99205e-16, No Iterations 2
diagonal:  Solving for rho, Initial residual = 0, Final residual = 0, No Iterations 0
time step continuity errors : sum local = 5.85397e-16, global = -1.33798e-16, cumulative = -2.09749e-15
PIMPLE: iteration 2
smoothSolver:  Solving for Ux, Initial residual = 0.00015331, Final residual = 8.28214e-18, No Iterations 1
smoothSolver:  Solving for e, Initial residual = 3.71376e-05, Final residual = 4.64317e-17, No Iterations 2
smoothSolver:  Solving for p, Initial residual = 5.33296e-06, Final residual = 9.7769e-18, No Iterations 2
diagonal:  Solving for rho, Initial residual = 0, Final residual = 0, No Iterations 0
time step continuity errors : sum local = 7.51841e-17, global = -2.4237e-17, cumulative = -2.12173e-15
PIMPLE: iteration 3
smoothSolver:  Solving for Ux, Initial residual = 4.03333e-05, Final residual = 9.56511e-18, No Iterations 1
smoothSolver:  Solving for e, Initial residual = 1.18276e-05, Final residual = 2.16453e-17, No Iterations 2
smoothSolver:  Solving for p, Initial residual = 1.42365e-06, Final residual = 1.01734e-17, No Iterations 2
diagonal:  Solving for rho, Initial residual = 0, Final residual = 0, No Iterations 0
time step continuity errors : sum local = 6.70227e-17, global = -1.75594e-17, cumulative = -2.13929e-15
ExecutionTime = 0.08 s  ClockTime = 0 s

Courant Number mean: 0.000550541 max: 0.0331594
Time = 0.00016

PIMPLE: iteration 1
diagonal:  Solving for rho, Initial residual = 0, Final residual = 0, No Iterations 0
smoothSolver:  Solving for Ux, Initial residual = 0.00960959, Final residual = 9.90588e-18, No Iterations 1
smoothSolver:  Solving for e, Initial residual = 0.000936066, Final residual = 6.10837e-16, No Iterations 2
smoothSolver:  Solving for p, Initial residual = 0.000365543, Final residual = 3.01337e-16, No Iterations 2
diagonal:  Solving for rho, Initial residual = 0, Final residual = 0, No Iterations 0
time step continuity errors : sum local = 5.76494e-16, global = -1.27368e-16, cumulative = -2.26665e-15
PIMPLE: iteration 2
smoothSolver:  Solving for Ux, Initial residual = 0.000136934, Final residual = 1.79068e-17, No Iterations 1
smoothSolver:  Solving for e, Initial residual = 4.35295e-05, Final residual = 6.11128e-17, No Iterations 2
smoothSolver:  Solving for p, Initial residual = 6.15619e-06, Final residual = 1.30242e-17, No Iterations 2
diagonal:  Solving for rho, Initial residual = 0, Final residual = 0, No Iterations 0
time step continuity errors : sum local = 7.41949e-17, global = -1.97853e-17, cumulative = -2.28644e-15
PIMPLE: iteration 3
smoothSolver:  Solving for Ux, Initial residual = 3.83921e-05, Final residual = 1.08125e-17, No Iterations 1
smoothSolver:  Solving for e, Initial residual = 1.26444e-05, Final residual = 2.48594e-17, No Iterations 2
smoothSolver:  Solving for p, Initial residual = 1.50298e-06, Final residual = 8.5122e-18, No Iterations 2
diagonal:  Solving for rho, Initial residual = 0, Final residual = 0, No Iterations 0
time step continuity errors : sum local = 6.70227e-17, global = -5.68827e-18, cumulative = -2.29213e-15
ExecutionTime = 0.08 s  ClockTime = 0 s

Courant Number mean: 0.000562335 max: 0.0327527
Time = 0.00017

PIMPLE: iteration 1
diagonal:  Solving for rho, Initial residual = 0, Final residual = 0, No Iterations 0
smoothSolver:  Solving for Ux, Initial residual = 0.00907035, Final residual = 4.84287e-18, No Iterations 1
smoothSolver:  Solving for e, Initial residual = 0.000913731, Final residual = 9.38247e-16, No Iterations 2
smoothSolver:  Solving for p, Initial residual = 0.000368964, Final residual = 3.04687e-16, No Iterations 2
diagonal:  Solving for rho, Initial residual = 0, Final residual = 0, No Iterations 0
time step continuity errors : sum local = 6.13344e-16, global = -1.32067e-16, cumulative = -2.42419e-15
PIMPLE: iteration 2
smoothSolver:  Solving for Ux, Initial residual = 0.000123878, Final residual = 8.65539e-18, No Iterations 1
smoothSolver:  Solving for e, Initial residual = 4.8853e-05, Final residual = 9.8282e-17, No Iterations 2
smoothSolver:  Solving for p, Initial residual = 6.84962e-06, Final residual = 1.39752e-17, No Iterations 2
diagonal:  Solving for rho, Initial residual = 0, Final residual = 0, No Iterations 0
time step continuity errors : sum local = 6.43022e-17, global = -1.83014e-17, cumulative = -2.44249e-15
PIMPLE: iteration 3
smoothSolver:  Solving for Ux, Initial residual = 3.62908e-05, Final residual = 4.62757e-18, No Iterations 1
smoothSolver:  Solving for e, Initial residual = 1.33785e-05, Final residual = 3.00644e-17, No Iterations 2
smoothSolver:  Solving for p, Initial residual = 1.57238e-06, Final residual = 1.09724e-17, No Iterations 2
diagonal:  Solving for rho, Initial residual = 0, Final residual = 0, No Iterations 0
time step continuity errors : sum local = 6.62807e-17, global = -2.67101e-17, cumulative = -2.4692e-15
ExecutionTime = 0.09 s  ClockTime = 0 s

Courant Number mean: 0.00057411 max: 0.0323054
Time = 0.00018

PIMPLE: iteration 1
diagonal:  Solving for rho, Initial residual = 0, Final residual = 0, No Iterations 0
smoothSolver:  Solving for Ux, Initial residual = 0.00859886, Final residual = 1.22817e-17, No Iterations 1
smoothSolver:  Solving for e, Initial residual = 0.000887445, Final residual = 1.57033e-17, No Iterations 3
smoothSolver:  Solving for p, Initial residual = 0.00037128, Final residual = 3.06326e-16, No Iterations 2
diagonal:  Solving for rho, Initial residual = 0, Final residual = 0, No Iterations 0
time step continuity errors : sum local = 5.98011e-16, global = -1.33551e-16, cumulative = -2.60276e-15
PIMPLE: iteration 2
smoothSolver:  Solving for Ux, Initial residual = 0.000113583, Final residual = 9.41028e-18, No Iterations 1
smoothSolver:  Solving for e, Initial residual = 5.33293e-05, Final residual = 1.49943e-16, No Iterations 2
smoothSolver:  Solving for p, Initial residual = 7.43483e-06, Final residual = 1.38769e-17, No Iterations 2
diagonal:  Solving for rho, Initial residual = 0, Final residual = 0, No Iterations 0
time step continuity errors : sum local = 6.30656e-17, global = -1.75594e-17, cumulative = -2.62032e-15
PIMPLE: iteration 3
smoothSolver:  Solving for Ux, Initial residual = 3.416e-05, Final residual = 2.21887e-17, No Iterations 1
smoothSolver:  Solving for e, Initial residual = 1.40399e-05, Final residual = 3.36342e-17, No Iterations 2
smoothSolver:  Solving for p, Initial residual = 1.63365e-06, Final residual = 1.18747e-17, No Iterations 2
diagonal:  Solving for rho, Initial residual = 0, Final residual = 0, No Iterations 0
time step continuity errors : sum local = 6.99905e-17, global = -1.21185e-17, cumulative = -2.63243e-15
ExecutionTime = 0.09 s  ClockTime = 0 s

Courant Number mean: 0.000586107 max: 0.0318368
Time = 0.00019

PIMPLE: iteration 1
diagonal:  Solving for rho, Initial residual = 0, Final residual = 0, No Iterations 0
smoothSolver:  Solving for Ux, Initial residual = 0.00818207, Final residual = 1.72455e-18, No Iterations 1
smoothSolver:  Solving for e, Initial residual = 0.000858233, Final residual = 1.53234e-17, No Iterations 3
smoothSolver:  Solving for p, Initial residual = 0.000372661, Final residual = 3.04809e-16, No Iterations 2
diagonal:  Solving for rho, Initial residual = 0, Final residual = 0, No Iterations 0
time step continuity errors : sum local = 5.92322e-16, global = -1.46659e-16, cumulative = -2.77909e-15
PIMPLE: iteration 2
smoothSolver:  Solving for Ux, Initial residual = 0.000105595, Final residual = 1.44046e-17, No Iterations 1
smoothSolver:  Solving for e, Initial residual = 5.71398e-05, Final residual = 2.37762e-16, No Iterations 2
smoothSolver:  Solving for p, Initial residual = 7.92875e-06, Final residual = 1.70614e-17, No Iterations 2
diagonal:  Solving for rho, Initial residual = 0, Final residual = 0, No Iterations 0
time step continuity errors : sum local = 6.62807e-17, global = -1.23658e-17, cumulative = -2.79146e-15
PIMPLE: iteration 3
smoothSolver:  Solving for Ux, Initial residual = 3.21e-05, Final residual = 1.47131e-17, No Iterations 1
smoothSolver:  Solving for e, Initial residual = 1.46412e-05, Final residual = 5.1421e-17, No Iterations 2
smoothSolver:  Solving for p, Initial residual = 1.68877e-06, Final residual = 1.12359e-17, No Iterations 2
diagonal:  Solving for rho, Initial residual = 0, Final residual = 0, No Iterations 0
time step continuity errors : sum local = 8.06251e-17, global = -2.91833e-17, cumulative = -2.82064e-15
ExecutionTime = 0.09 s  ClockTime = 0 s

Courant Number mean: 0.00059853 max: 0.0313615
Time = 0.0002

PIMPLE: iteration 1
diagonal:  Solving for rho, Initial residual = 0, Final residual = 0, No Iterations 0
smoothSolver:  Solving for Ux, Initial residual = 0.00780969, Final residual = 1.19858e-17, No Iterations 1
smoothSolver:  Solving for e, Initial residual = 0.000826022, Final residual = 1.6287e-17, No Iterations 3
smoothSolver:  Solving for p, Initial residual = 0.000373259, Final residual = 3.01503e-16, No Iterations 2
diagonal:  Solving for rho, Initial residual = 0, Final residual = 0, No Iterations 0
time step continuity errors : sum local = 5.83666e-16, global = -1.31078e-16, cumulative = -2.95172e-15
PIMPLE: iteration 2
smoothSolver:  Solving for Ux, Initial residual = 9.87186e-05, Final residual = 6.17236e-18, No Iterations 1
smoothSolver:  Solving for e, Initial residual = 5.95329e-05, Final residual = 3.74782e-16, No Iterations 2
smoothSolver:  Solving for p, Initial residual = 8.2606e-06, Final residual = 1.42165e-17, No Iterations 2
diagonal:  Solving for rho, Initial residual = 0, Final residual = 0, No Iterations 0
time step continuity errors : sum local = 7.46895e-17, global = -2.17638e-17, cumulative = -2.97348e-15
PIMPLE: iteration 3
smoothSolver:  Solving for Ux, Initial residual = 3.12586e-05, Final residual = 9.69333e-18, No Iterations 1
smoothSolver:  Solving for e, Initial residual = 1.51406e-05, Final residual = 6.65559e-17, No Iterations 2
smoothSolver:  Solving for p, Initial residual = 1.73717e-06, Final residual = 1.0642e-17, No Iterations 2
diagonal:  Solving for rho, Initial residual = 0, Final residual = 0, No Iterations 0
time step continuity errors : sum local = 7.59261e-17, global = -1.55809e-17, cumulative = -2.98906e-15
ExecutionTime = 0.09 s  ClockTime = 0 s

Courant Number mean: 0.000611437 max: 0.0308902
Time = 0.00021

PIMPLE: iteration 1
diagonal:  Solving for rho, Initial residual = 0, Final residual = 0, No Iterations 0
smoothSolver:  Solving for Ux, Initial residual = 0.00747434, Final residual = 4.83372e-18, No Iterations 1
smoothSolver:  Solving for e, Initial residual = 0.00079184, Final residual = 1.93388e-17, No Iterations 3
smoothSolver:  Solving for p, Initial residual = 0.000373219, Final residual = 3.02471e-16, No Iterations 2
diagonal:  Solving for rho, Initial residual = 0, Final residual = 0, No Iterations 0
time step continuity errors : sum local = 5.79215e-16, global = -1.2069e-16, cumulative = -3.10975e-15
PIMPLE: iteration 2
smoothSolver:  Solving for Ux, Initial residual = 9.21903e-05, Final residual = 6.64075e-18, No Iterations 1
smoothSolver:  Solving for e, Initial residual = 6.03681e-05, Final residual = 5.5379e-16, No Iterations 2
smoothSolver:  Solving for p, Initial residual = 8.4022e-06, Final residual = 1.59722e-17, No Iterations 2
diagonal:  Solving for rho, Initial residual = 0, Final residual = 0, No Iterations 0
time step continuity errors : sum local = 7.29583e-17, global = -2.99253e-17, cumulative = -3.13968e-15
PIMPLE: iteration 3
smoothSolver:  Solving for Ux, Initial residual = 3.06021e-05, Final residual = 4.19438e-18, No Iterations 1
smoothSolver:  Solving for e, Initial residual = 1.55593e-05, Final residual = 9.40925e-17, No Iterations 2
smoothSolver:  Solving for p, Initial residual = 1.77774e-06, Final residual = 1.09565e-17, No Iterations 2
diagonal:  Solving for rho, Initial residual = 0, Final residual = 0, No Iterations 0
time step continuity errors : sum local = 6.99905e-17, global = -2.15165e-17, cumulative = -3.1612e-15
ExecutionTime = 0.1 s  ClockTime = 0 s

Courant Number mean: 0.000624796 max: 0.0304308
Time = 0.00022

PIMPLE: iteration 1
diagonal:  Solving for rho, Initial residual = 0, Final residual = 0, No Iterations 0
smoothSolver:  Solving for Ux, Initial residual = 0.00717071, Final residual = 1.02387e-17, No Iterations 1
smoothSolver:  Solving for e, Initial residual = 0.000757361, Final residual = 2.19107e-17, No Iterations 3
smoothSolver:  Solving for p, Initial residual = 0.00037267, Final residual = 3.06794e-16, No Iterations 2
diagonal:  Solving for rho, Initial residual = 0, Final residual = 0, No Iterations 0
time step continuity errors : sum local = 5.86139e-16, global = -1.31572e-16, cumulative = -3.29277e-15
PIMPLE: iteration 2
smoothSolver:  Solving for Ux, Initial residual = 8.58379e-05, Final residual = 1.04212e-17, No Iterations 1
smoothSolver:  Solving for e, Initial residual = 5.98839e-05, Final residual = 8.03703e-16, No Iterations 2
smoothSolver:  Solving for p, Initial residual = 8.38384e-06, Final residual = 1.57289e-17, No Iterations 2
diagonal:  Solving for rho, Initial residual = 0, Final residual = 0, No Iterations 0
time step continuity errors : sum local = 8.65607e-17, global = -3.46243e-17, cumulative = -3.32739e-15
PIMPLE: iteration 3
smoothSolver:  Solving for Ux, Initial residual = 2.97831e-05, Final residual = 9.43417e-18, No Iterations 1
smoothSolver:  Solving for e, Initial residual = 1.58953e-05, Final residual = 1.34658e-16, No Iterations 2
smoothSolver:  Solving for p, Initial residual = 1.81006e-06, Final residual = 1.19588e-17, No Iterations 2
diagonal:  Solving for rho, Initial residual = 0, Final residual = 0, No Iterations 0
time step continuity errors : sum local = 7.39475e-17, global = -2.94306e-17, cumulative = -3.35682e-15
ExecutionTime = 0.1 s  ClockTime = 0 s

Courant Number mean: 0.000638552 max: 0.0299887
Time = 0.00023

PIMPLE: iteration 1
diagonal:  Solving for rho, Initial residual = 0, Final residual = 0, No Iterations 0
smoothSolver:  Solving for Ux, Initial residual = 0.00689465, Final residual = 8.98881e-18, No Iterations 1
smoothSolver:  Solving for e, Initial residual = 0.000732619, Final residual = 1.7486e-17, No Iterations 3
smoothSolver:  Solving for p, Initial residual = 0.00037172, Final residual = 2.98837e-16, No Iterations 2
diagonal:  Solving for rho, Initial residual = 0, Final residual = 0, No Iterations 0
time step continuity errors : sum local = 5.70558e-16, global = -1.20443e-16, cumulative = -3.47727e-15
PIMPLE: iteration 2
smoothSolver:  Solving for Ux, Initial residual = 7.97141e-05, Final residual = 1.58505e-17, No Iterations 1
smoothSolver:  Solving for e, Initial residual = 5.84671e-05, Final residual = 2.27398e-17, No Iterations 3
smoothSolver:  Solving for p, Initial residual = 8.25324e-06, Final residual = 1.59405e-17, No Iterations 2
diagonal:  Solving for rho, Initial residual = 0, Final residual = 0, No Iterations 0
time step continuity errors : sum local = 8.01304e-17, global = -2.02799e-17, cumulative = -3.49755e-15
PIMPLE: iteration 3
smoothSolver:  Solving for Ux, Initial residual = 2.88731e-05, Final residual = 2.05676e-17, No Iterations 1
smoothSolver:  Solving for e, Initial residual = 1.61507e-05, Final residual = 1.96838e-16, No Iterations 2
smoothSolver:  Solving for p, Initial residual = 1.83422e-06, Final residual = 9.37954e-18, No Iterations 2
diagonal:  Solving for rho, Initial residual = 0, Final residual = 0, No Iterations 0
time step continuity errors : sum local = 5.7872e-17, global = -2.86887e-17, cumulative = -3.52623e-15
ExecutionTime = 0.1 s  ClockTime = 0 s

Courant Number mean: 0.000652658 max: 0.0295675
Time = 0.00024

PIMPLE: iteration 1
diagonal:  Solving for rho, Initial residual = 0, Final residual = 0, No Iterations 0
smoothSolver:  Solving for Ux, Initial residual = 0.00664276, Final residual = 6.24752e-18, No Iterations 1
smoothSolver:  Solving for e, Initial residual = 0.000739406, Final residual = 1.8888e-17, No Iterations 3
smoothSolver:  Solving for p, Initial residual = 0.000370452, Final residual = 2.93921e-16, No Iterations 2
diagonal:  Solving for rho, Initial residual = 0, Final residual = 0, No Iterations 0
time step continuity errors : sum local = 5.71053e-16, global = -1.31325e-16, cumulative = -3.65756e-15
PIMPLE: iteration 2
smoothSolver:  Solving for Ux, Initial residual = 7.39597e-05, Final residual = 1.01717e-17, No Iterations 1
smoothSolver:  Solving for e, Initial residual = 3.14115e-05, Final residual = 9.63008e-16, No Iterations 2
smoothSolver:  Solving for p, Initial residual = 4.88533e-06, Final residual = 9.90786e-18, No Iterations 2
diagonal:  Solving for rho, Initial residual = 0, Final residual = 0, No Iterations 0
time step continuity errors : sum local = 7.29583e-17, global = -1.80541e-17, cumulative = -3.67561e-15
PIMPLE: iteration 3
smoothSolver:  Solving for Ux, Initial residual = 2.77869e-05, Final residual = 9.36502e-18, No Iterations 1
smoothSolver:  Solving for e, Initial residual = 1.60863e-05, Final residual = 2.54866e-16, No Iterations 2
smoothSolver:  Solving for p, Initial residual = 1.85267e-06, Final residual = 1.04777e-17, No Iterations 2
diagonal:  Solving for rho, Initial residual = 0, Final residual = 0, No Iterations 0
time step continuity errors : sum local = 7.54314e-17, global = -3.14092e-17, cumulative = -3.70702e-15
ExecutionTime = 0.1 s  ClockTime = 0 s

Courant Number mean: 0.000667091 max: 0.0291695
Time = 0.00025

PIMPLE: iteration 1
diagonal:  Solving for rho, Initial residual = 0, Final residual = 0, No Iterations 0
smoothSolver:  Solving for Ux, Initial residual = 0.00641213, Final residual = 8.43523e-18, No Iterations 1
smoothSolver:  Solving for e, Initial residual = 0.000745612, Final residual = 1.3112e-17, No Iterations 3
smoothSolver:  Solving for p, Initial residual = 0.000371977, Final residual = 2.95079e-16, No Iterations 2
diagonal:  Solving for rho, Initial residual = 0, Final residual = 0, No Iterations 0
time step continuity errors : sum local = 5.60171e-16, global = -1.18464e-16, cumulative = -3.82549e-15
PIMPLE: iteration 2
smoothSolver:  Solving for Ux, Initial residual = 6.85399e-05, Final residual = 9.5503e-18, No Iterations 1
smoothSolver:  Solving for e, Initial residual = 2.93957e-05, Final residual = 2.7155e-17, No Iterations 3
smoothSolver:  Solving for p, Initial residual = 4.97523e-06, Final residual = 1.2164e-17, No Iterations 2
diagonal:  Solving for rho, Initial residual = 0, Final residual = 0, No Iterations 0
time step continuity errors : sum local = 8.06251e-17, global = -2.91833e-17, cumulative = -3.85467e-15
PIMPLE: iteration 3
smoothSolver:  Solving for Ux, Initial residual = 2.70522e-05, Final residual = 9.46466e-18, No Iterations 1
smoothSolver:  Solving for e, Initial residual = 1.63611e-05, Final residual = 3.73506e-16, No Iterations 2
smoothSolver:  Solving for p, Initial residual = 1.88215e-06, Final residual = 1.07404e-17, No Iterations 2
diagonal:  Solving for rho, Initial residual = 0, Final residual = 0, No Iterations 0
time step continuity errors : sum local = 6.99905e-17, global = -4.47642e-17, cumulative = -3.89943e-15
ExecutionTime = 0.11 s  ClockTime = 0 s

Courant Number mean: 0.000681849 max: 0.028796
Time = 0.00026

PIMPLE: iteration 1
diagonal:  Solving for rho, Initial residual = 0, Final residual = 0, No Iterations 0
smoothSolver:  Solving for Ux, Initial residual = 0.00622489, Final residual = 1.3715e-17, No Iterations 1
smoothSolver:  Solving for e, Initial residual = 0.000751406, Final residual = 1.96384e-17, No Iterations 3
smoothSolver:  Solving for p, Initial residual = 0.000373293, Final residual = 2.96766e-16, No Iterations 2
diagonal:  Solving for rho, Initial residual = 0, Final residual = 0, No Iterations 0
time step continuity errors : sum local = 5.65612e-16, global = -1.18959e-16, cumulative = -4.01839e-15
PIMPLE: iteration 2
smoothSolver:  Solving for Ux, Initial residual = 6.37172e-05, Final residual = 1.0557e-17, No Iterations 1
smoothSolver:  Solving for e, Initial residual = 2.74974e-05, Final residual = 2.27968e-17, No Iterations 3
smoothSolver:  Solving for p, Initial residual = 5.27475e-06, Final residual = 1.40093e-17, No Iterations 2
diagonal:  Solving for rho, Initial residual = 0, Final residual = 0, No Iterations 0
time step continuity errors : sum local = 7.37002e-17, global = -2.22585e-17, cumulative = -4.04065e-15
PIMPLE: iteration 3
smoothSolver:  Solving for Ux, Initial residual = 2.6351e-05, Final residual = 8.43377e-18, No Iterations 1
smoothSolver:  Solving for e, Initial residual = 1.66049e-05, Final residual = 4.9866e-16, No Iterations 2
smoothSolver:  Solving for p, Initial residual = 1.90545e-06, Final residual = 1.01153e-17, No Iterations 2
diagonal:  Solving for rho, Initial residual = 0, Final residual = 0, No Iterations 0
time step continuity errors : sum local = 6.727e-17, global = -2.02799e-17, cumulative = -4.06093e-15
ExecutionTime = 0.11 s  ClockTime = 0 s

Courant Number mean: 0.000696943 max: 0.0284479
Time = 0.00027

PIMPLE: iteration 1
diagonal:  Solving for rho, Initial residual = 0, Final residual = 0, No Iterations 0
smoothSolver:  Solving for Ux, Initial residual = 0.00611469, Final residual = 1.07631e-17, No Iterations 1
smoothSolver:  Solving for e, Initial residual = 0.000756874, Final residual = 2.06156e-17, No Iterations 3
smoothSolver:  Solving for p, Initial residual = 0.000374222, Final residual = 2.96129e-16, No Iterations 2
diagonal:  Solving for rho, Initial residual = 0, Final residual = 0, No Iterations 0
time step continuity errors : sum local = 5.54978e-16, global = -1.18712e-16, cumulative = -4.17964e-15
PIMPLE: iteration 2
smoothSolver:  Solving for Ux, Initial residual = 5.94699e-05, Final residual = 9.83738e-18, No Iterations 1
smoothSolver:  Solving for e, Initial residual = 2.57797e-05, Final residual = 2.35018e-17, No Iterations 3
smoothSolver:  Solving for p, Initial residual = 5.55675e-06, Final residual = 1.2282e-17, No Iterations 2
diagonal:  Solving for rho, Initial residual = 0, Final residual = 0, No Iterations 0
time step continuity errors : sum local = 6.8012e-17, global = -1.4097e-17, cumulative = -4.19374e-15
PIMPLE: iteration 3
smoothSolver:  Solving for Ux, Initial residual = 2.56641e-05, Final residual = 8.10638e-18, No Iterations 1
smoothSolver:  Solving for e, Initial residual = 1.67881e-05, Final residual = 6.16539e-16, No Iterations 2
smoothSolver:  Solving for p, Initial residual = 1.92339e-06, Final residual = 1.15415e-17, No Iterations 2
diagonal:  Solving for rho, Initial residual = 0, Final residual = 0, No Iterations 0
time step continuity errors : sum local = 8.33456e-17, global = -2.54736e-17, cumulative = -4.21921e-15
ExecutionTime = 0.11 s  ClockTime = 0 s

Courant Number mean: 0.000712391 max: 0.0281256
Time = 0.00028

PIMPLE: iteration 1
diagonal:  Solving for rho, Initial residual = 0, Final residual = 0, No Iterations 0
smoothSolver:  Solving for Ux, Initial residual = 0.00600624, Final residual = 1.06264e-17, No Iterations 1
smoothSolver:  Solving for e, Initial residual = 0.00076207, Final residual = 2.57716e-17, No Iterations 3
smoothSolver:  Solving for p, Initial residual = 0.000374784, Final residual = 2.95946e-16, No Iterations 2
diagonal:  Solving for rho, Initial residual = 0, Final residual = 0, No Iterations 0
time step continuity errors : sum local = 5.93064e-16, global = -1.19206e-16, cumulative = -4.33842e-15
PIMPLE: iteration 2
smoothSolver:  Solving for Ux, Initial residual = 5.57263e-05, Final residual = 7.78924e-18, No Iterations 1
smoothSolver:  Solving for e, Initial residual = 2.5154e-05, Final residual = 2.36403e-17, No Iterations 3
smoothSolver:  Solving for p, Initial residual = 5.83367e-06, Final residual = 1.44535e-17, No Iterations 2
diagonal:  Solving for rho, Initial residual = 0, Final residual = 0, No Iterations 0
time step continuity errors : sum local = 7.51841e-17, global = -1.28604e-17, cumulative = -4.35128e-15
PIMPLE: iteration 3
smoothSolver:  Solving for Ux, Initial residual = 2.50068e-05, Final residual = 1.60764e-17, No Iterations 1
smoothSolver:  Solving for e, Initial residual = 1.69251e-05, Final residual = 7.14489e-16, No Iterations 2
smoothSolver:  Solving for p, Initial residual = 1.93629e-06, Final residual = 9.82512e-18, No Iterations 2
diagonal:  Solving for rho, Initial residual = 0, Final residual = 0, No Iterations 0
time step continuity errors : sum local = 7.64207e-17, global = -1.26131e-17, cumulative = -4.36389e-15
ExecutionTime = 0.11 s  ClockTime = 0 s

Courant Number mean: 0.000728209 max: 0.0278291
Time = 0.00029

PIMPLE: iteration 1
diagonal:  Solving for rho, Initial residual = 0, Final residual = 0, No Iterations 0
smoothSolver:  Solving for Ux, Initial residual = 0.00589991, Final residual = 1.44069e-17, No Iterations 1
smoothSolver:  Solving for e, Initial residual = 0.000767041, Final residual = 1.49578e-17, No Iterations 3
smoothSolver:  Solving for p, Initial residual = 0.000375003, Final residual = 2.96096e-16, No Iterations 2
diagonal:  Solving for rho, Initial residual = 0, Final residual = 0, No Iterations 0
time step continuity errors : sum local = 5.65365e-16, global = -1.28604e-16, cumulative = -4.4925e-15
PIMPLE: iteration 2
smoothSolver:  Solving for Ux, Initial residual = 5.24094e-05, Final residual = 7.68104e-18, No Iterations 1
smoothSolver:  Solving for e, Initial residual = 2.51483e-05, Final residual = 2.1663e-17, No Iterations 3
smoothSolver:  Solving for p, Initial residual = 6.10578e-06, Final residual = 1.30121e-17, No Iterations 2
diagonal:  Solving for rho, Initial residual = 0, Final residual = 0, No Iterations 0
time step continuity errors : sum local = 8.45821e-17, global = -3.3635e-17, cumulative = -4.52613e-15
PIMPLE: iteration 3
smoothSolver:  Solving for Ux, Initial residual = 2.43815e-05, Final residual = 5.58482e-18, No Iterations 1
smoothSolver:  Solving for e, Initial residual = 1.70191e-05, Final residual = 7.7571e-16, No Iterations 2
smoothSolver:  Solving for p, Initial residual = 1.94443e-06, Final residual = 1.21836e-17, No Iterations 2
diagonal:  Solving for rho, Initial residual = 0, Final residual = 0, No Iterations 0
time step continuity errors : sum local = 7.6668e-17, global = -2.8194e-17, cumulative = -4.55433e-15
ExecutionTime = 0.12 s  ClockTime = 0 s

Courant Number mean: 0.000744412 max: 0.0275584
Time = 0.0003

PIMPLE: iteration 1
diagonal:  Solving for rho, Initial residual = 0, Final residual = 0, No Iterations 0
smoothSolver:  Solving for Ux, Initial residual = 0.00579592, Final residual = 7.80558e-18, No Iterations 1
smoothSolver:  Solving for e, Initial residual = 0.000771828, Final residual = 2.00954e-17, No Iterations 3
smoothSolver:  Solving for p, Initial residual = 0.000374901, Final residual = 2.94432e-16, No Iterations 2
diagonal:  Solving for rho, Initial residual = 0, Final residual = 0, No Iterations 0
time step continuity errors : sum local = 5.45827e-16, global = -1.27862e-16, cumulative = -4.68219e-15
PIMPLE: iteration 2
smoothSolver:  Solving for Ux, Initial residual = 4.9447e-05, Final residual = 2.80803e-18, No Iterations 1
smoothSolver:  Solving for e, Initial residual = 2.63814e-05, Final residual = 2.69109e-17, No Iterations 3
smoothSolver:  Solving for p, Initial residual = 6.37323e-06, Final residual = 1.56166e-17, No Iterations 2
diagonal:  Solving for rho, Initial residual = 0, Final residual = 0, No Iterations 0
time step continuity errors : sum local = 7.61734e-17, global = -2.37424e-17, cumulative = -4.70593e-15
PIMPLE: iteration 3
smoothSolver:  Solving for Ux, Initial residual = 2.37901e-05, Final residual = 1.09146e-17, No Iterations 1
smoothSolver:  Solving for e, Initial residual = 1.70725e-05, Final residual = 7.67323e-16, No Iterations 2
smoothSolver:  Solving for p, Initial residual = 1.948e-06, Final residual = 1.05339e-17, No Iterations 2
diagonal:  Solving for rho, Initial residual = 0, Final residual = 0, No Iterations 0
time step continuity errors : sum local = 7.37002e-17, global = -2.76994e-17, cumulative = -4.73363e-15
ExecutionTime = 0.12 s  ClockTime = 0 s

Courant Number mean: 0.00076101 max: 0.0273131
Time = 0.00031

PIMPLE: iteration 1
diagonal:  Solving for rho, Initial residual = 0, Final residual = 0, No Iterations 0
smoothSolver:  Solving for Ux, Initial residual = 0.00569446, Final residual = 9.65148e-18, No Iterations 1
smoothSolver:  Solving for e, Initial residual = 0.000776466, Final residual = 1.7679e-17, No Iterations 3
smoothSolver:  Solving for p, Initial residual = 0.000374499, Final residual = 2.92584e-16, No Iterations 2
diagonal:  Solving for rho, Initial residual = 0, Final residual = 0, No Iterations 0
time step continuity errors : sum local = 5.59182e-16, global = -1.21432e-16, cumulative = -4.85506e-15
PIMPLE: iteration 2
smoothSolver:  Solving for Ux, Initial residual = 4.67783e-05, Final residual = 8.04239e-18, No Iterations 1
smoothSolver:  Solving for e, Initial residual = 2.8155e-05, Final residual = 2.23096e-17, No Iterations 3
smoothSolver:  Solving for p, Initial residual = 6.63598e-06, Final residual = 1.24907e-17, No Iterations 2
diagonal:  Solving for rho, Initial residual = 0, Final residual = 0, No Iterations 0
time step continuity errors : sum local = 7.98831e-17, global = -9.64533e-18, cumulative = -4.86471e-15
PIMPLE: iteration 3
smoothSolver:  Solving for Ux, Initial residual = 2.3234e-05, Final residual = 1.19475e-17, No Iterations 1
smoothSolver:  Solving for e, Initial residual = 1.70868e-05, Final residual = 7.1618e-16, No Iterations 2
smoothSolver:  Solving for p, Initial residual = 1.94712e-06, Final residual = 9.47248e-18, No Iterations 2
diagonal:  Solving for rho, Initial residual = 0, Final residual = 0, No Iterations 0
time step continuity errors : sum local = 6.50442e-17, global = -1.75594e-17, cumulative = -4.88227e-15
ExecutionTime = 0.12 s  ClockTime = 0 s

Courant Number mean: 0.000778009 max: 0.0270929
Time = 0.00032

PIMPLE: iteration 1
diagonal:  Solving for rho, Initial residual = 0, Final residual = 0, No Iterations 0
smoothSolver:  Solving for Ux, Initial residual = 0.00559432, Final residual = 1.24896e-17, No Iterations 1
smoothSolver:  Solving for e, Initial residual = 0.000780986, Final residual = 2.10542e-17, No Iterations 3
smoothSolver:  Solving for p, Initial residual = 0.000373815, Final residual = 2.90359e-16, No Iterations 2
diagonal:  Solving for rho, Initial residual = 0, Final residual = 0, No Iterations 0
time step continuity errors : sum local = 5.54236e-16, global = -1.20938e-16, cumulative = -5.00321e-15
PIMPLE: iteration 2
smoothSolver:  Solving for Ux, Initial residual = 4.43266e-05, Final residual = 1.56333e-17, No Iterations 1
smoothSolver:  Solving for e, Initial residual = 2.98357e-05, Final residual = 1.96256e-17, No Iterations 3
smoothSolver:  Solving for p, Initial residual = 6.88304e-06, Final residual = 1.51882e-17, No Iterations 2
diagonal:  Solving for rho, Initial residual = 0, Final residual = 0, No Iterations 0
time step continuity errors : sum local = 7.46895e-17, global = -5.44096e-18, cumulative = -5.00865e-15
PIMPLE: iteration 3
smoothSolver:  Solving for Ux, Initial residual = 2.27108e-05, Final residual = 1.01007e-17, No Iterations 1
smoothSolver:  Solving for e, Initial residual = 1.70661e-05, Final residual = 6.26512e-16, No Iterations 2
smoothSolver:  Solving for p, Initial residual = 1.94222e-06, Final residual = 1.35874e-17, No Iterations 2
diagonal:  Solving for rho, Initial residual = 0, Final residual = 0, No Iterations 0
time step continuity errors : sum local = 7.41949e-17, global = -1.68175e-17, cumulative = -5.02547e-15
ExecutionTime = 0.12 s  ClockTime = 0 s

Courant Number mean: 0.000795405 max: 0.0268973
Time = 0.00033

PIMPLE: iteration 1
diagonal:  Solving for rho, Initial residual = 0, Final residual = 0, No Iterations 0
smoothSolver:  Solving for Ux, Initial residual = 0.00549287, Final residual = 1.15264e-17, No Iterations 1
smoothSolver:  Solving for e, Initial residual = 0.000785415, Final residual = 1.83214e-17, No Iterations 3
smoothSolver:  Solving for p, Initial residual = 0.000372867, Final residual = 2.85209e-16, No Iterations 2
diagonal:  Solving for rho, Initial residual = 0, Final residual = 0, No Iterations 0
time step continuity errors : sum local = 5.54978e-16, global = -1.3454e-16, cumulative = -5.16001e-15
PIMPLE: iteration 2
smoothSolver:  Solving for Ux, Initial residual = 4.19887e-05, Final residual = 9.32103e-18, No Iterations 1
smoothSolver:  Solving for e, Initial residual = 3.15824e-05, Final residual = 3.47627e-17, No Iterations 3
smoothSolver:  Solving for p, Initial residual = 7.14751e-06, Final residual = 1.24959e-17, No Iterations 2
diagonal:  Solving for rho, Initial residual = 0, Final residual = 0, No Iterations 0
time step continuity errors : sum local = 5.98505e-17, global = -1.58282e-17, cumulative = -5.17583e-15
PIMPLE: iteration 3
smoothSolver:  Solving for Ux, Initial residual = 2.21892e-05, Final residual = 1.22288e-17, No Iterations 1
smoothSolver:  Solving for e, Initial residual = 1.70209e-05, Final residual = 3.32592e-17, No Iterations 3
smoothSolver:  Solving for p, Initial residual = 1.958e-06, Final residual = 1.24542e-17, No Iterations 2
diagonal:  Solving for rho, Initial residual = 0, Final residual = 0, No Iterations 0
time step continuity errors : sum local = 8.43348e-17, global = -2.10219e-17, cumulative = -5.19686e-15
ExecutionTime = 0.13 s  ClockTime = 0 s

Courant Number mean: 0.000813177 max: 0.026726
Time = 0.00034

PIMPLE: iteration 1
diagonal:  Solving for rho, Initial residual = 0, Final residual = 0, No Iterations 0
smoothSolver:  Solving for Ux, Initial residual = 0.00539065, Final residual = 8.16624e-18, No Iterations 1
smoothSolver:  Solving for e, Initial residual = 0.000790381, Final residual = 1.66225e-16, No Iterations 3
smoothSolver:  Solving for p, Initial residual = 0.000371708, Final residual = 2.8598e-16, No Iterations 2
diagonal:  Solving for rho, Initial residual = 0, Final residual = 0, No Iterations 0
time step continuity errors : sum local = 5.47311e-16, global = -1.06099e-16, cumulative = -5.30295e-15
PIMPLE: iteration 2
smoothSolver:  Solving for Ux, Initial residual = 3.98025e-05, Final residual = 1.12129e-17, No Iterations 1
smoothSolver:  Solving for e, Initial residual = 3.28317e-05, Final residual = 3.20158e-17, No Iterations 3
smoothSolver:  Solving for p, Initial residual = 7.32291e-06, Final residual = 1.31356e-17, No Iterations 2
diagonal:  Solving for rho, Initial residual = 0, Final residual = 0, No Iterations 0
time step continuity errors : sum local = 7.88939e-17, global = -2.10219e-17, cumulative = -5.32398e-15
PIMPLE: iteration 3
smoothSolver:  Solving for Ux, Initial residual = 2.17584e-05, Final residual = 1.42218e-17, No Iterations 1
smoothSolver:  Solving for e, Initial residual = 1.69913e-05, Final residual = 3.42976e-17, No Iterations 3
smoothSolver:  Solving for p, Initial residual = 1.95378e-06, Final residual = 9.68234e-18, No Iterations 2
diagonal:  Solving for rho, Initial residual = 0, Final residual = 0, No Iterations 0
time step continuity errors : sum local = 7.34529e-17, global = -3.63555e-17, cumulative = -5.36033e-15
ExecutionTime = 0.13 s  ClockTime = 0 s

Courant Number mean: 0.000831309 max: 0.0265784
Time = 0.00035

PIMPLE: iteration 1
diagonal:  Solving for rho, Initial residual = 0, Final residual = 0, No Iterations 0
smoothSolver:  Solving for Ux, Initial residual = 0.00529072, Final residual = 1.2845e-17, No Iterations 1
smoothSolver:  Solving for e, Initial residual = 0.000798784, Final residual = 1.77688e-16, No Iterations 3
smoothSolver:  Solving for p, Initial residual = 0.000370304, Final residual = 2.8704e-16, No Iterations 2
diagonal:  Solving for rho, Initial residual = 0, Final residual = 0, No Iterations 0
time step continuity errors : sum local = 5.50526e-16, global = -1.11787e-16, cumulative = -5.47212e-15
PIMPLE: iteration 2
smoothSolver:  Solving for Ux, Initial residual = 3.77307e-05, Final residual = 1.03269e-17, No Iterations 1
smoothSolver:  Solving for e, Initial residual = 3.4128e-05, Final residual = 4.18518e-17, No Iterations 3
smoothSolver:  Solving for p, Initial residual = 7.53024e-06, Final residual = 1.40807e-17, No Iterations 2
diagonal:  Solving for rho, Initial residual = 0, Final residual = 0, No Iterations 0
time step continuity errors : sum local = 6.87539e-17, global = -3.46243e-18, cumulative = -5.47558e-15
PIMPLE: iteration 3
smoothSolver:  Solving for Ux, Initial residual = 2.13834e-05, Final residual = 7.5015e-18, No Iterations 1
smoothSolver:  Solving for e, Initial residual = 1.71244e-05, Final residual = 3.70969e-17, No Iterations 3
smoothSolver:  Solving for p, Initial residual = 1.96719e-06, Final residual = 1.38833e-17, No Iterations 2
diagonal:  Solving for rho, Initial residual = 0, Final residual = 0, No Iterations 0
time step continuity errors : sum local = 8.95285e-17, global = 3.95706e-18, cumulative = -5.47162e-15
ExecutionTime = 0.13 s  ClockTime = 0 s

Courant Number mean: 0.000849781 max: 0.0264543
Time = 0.00036

PIMPLE: iteration 1
diagonal:  Solving for rho, Initial residual = 0, Final residual = 0, No Iterations 0
smoothSolver:  Solving for Ux, Initial residual = 0.00519369, Final residual = 6.94596e-18, No Iterations 1
smoothSolver:  Solving for e, Initial residual = 0.000807311, Final residual = 1.80918e-16, No Iterations 3
smoothSolver:  Solving for p, Initial residual = 0.00036867, Final residual = 2.83782e-16, No Iterations 2
diagonal:  Solving for rho, Initial residual = 0, Final residual = 0, No Iterations 0
time step continuity errors : sum local = 5.58193e-16, global = -1.17475e-16, cumulative = -5.5891e-15
PIMPLE: iteration 2
smoothSolver:  Solving for Ux, Initial residual = 3.57441e-05, Final residual = 1.31186e-17, No Iterations 1
smoothSolver:  Solving for e, Initial residual = 3.52888e-05, Final residual = 3.63563e-17, No Iterations 3
smoothSolver:  Solving for p, Initial residual = 7.69927e-06, Final residual = 1.48244e-17, No Iterations 2
diagonal:  Solving for rho, Initial residual = 0, Final residual = 0, No Iterations 0
time step continuity errors : sum local = 8.23563e-17, global = -1.23658e-18, cumulative = -5.59034e-15
PIMPLE: iteration 3
smoothSolver:  Solving for Ux, Initial residual = 2.10149e-05, Final residual = 4.83383e-18, No Iterations 1
smoothSolver:  Solving for e, Initial residual = 1.70887e-05, Final residual = 3.89627e-17, No Iterations 3
smoothSolver:  Solving for p, Initial residual = 1.96027e-06, Final residual = 1.3056e-17, No Iterations 2
diagonal:  Solving for rho, Initial residual = 0, Final residual = 0, No Iterations 0
time step continuity errors : sum local = 7.69153e-17, global = -2.79467e-17, cumulative = -5.61828e-15
ExecutionTime = 0.13 s  ClockTime = 0 s

Courant Number mean: 0.000868577 max: 0.0263532
Time = 0.00037

PIMPLE: iteration 1
diagonal:  Solving for rho, Initial residual = 0, Final residual = 0, No Iterations 0
smoothSolver:  Solving for Ux, Initial residual = 0.00509955, Final residual = 7.47545e-18, No Iterations 1
smoothSolver:  Solving for e, Initial residual = 0.000815976, Final residual = 1.87228e-16, No Iterations 3
smoothSolver:  Solving for p, Initial residual = 0.000366832, Final residual = 2.83424e-16, No Iterations 2
diagonal:  Solving for rho, Initial residual = 0, Final residual = 0, No Iterations 0
time step continuity errors : sum local = 5.4558e-16, global = -1.15249e-16, cumulative = -5.73353e-15
PIMPLE: iteration 2
smoothSolver:  Solving for Ux, Initial residual = 3.38499e-05, Final residual = 1.26253e-17, No Iterations 1
smoothSolver:  Solving for e, Initial residual = 3.63298e-05, Final residual = 3.80323e-17, No Iterations 3
smoothSolver:  Solving for p, Initial residual = 7.84235e-06, Final residual = 1.56659e-17, No Iterations 2
diagonal:  Solving for rho, Initial residual = 0, Final residual = 0, No Iterations 0
time step continuity errors : sum local = 8.77972e-17, global = -4.72374e-17, cumulative = -5.78077e-15
PIMPLE: iteration 3
smoothSolver:  Solving for Ux, Initial residual = 2.06766e-05, Final residual = 1.51749e-17, No Iterations 1
smoothSolver:  Solving for e, Initial residual = 1.70095e-05, Final residual = 3.50028e-17, No Iterations 3
smoothSolver:  Solving for p, Initial residual = 1.94813e-06, Final residual = 1.16189e-17, No Iterations 2
diagonal:  Solving for rho, Initial residual = 0, Final residual = 0, No Iterations 0
time step continuity errors : sum local = 7.54314e-17, global = -4.22911e-17, cumulative = -5.82306e-15
ExecutionTime = 0.13 s  ClockTime = 0 s

Courant Number mean: 0.000887687 max: 0.0262749
Time = 0.00038

PIMPLE: iteration 1
diagonal:  Solving for rho, Initial residual = 0, Final residual = 0, No Iterations 0
smoothSolver:  Solving for Ux, Initial residual = 0.00500825, Final residual = 1.98787e-17, No Iterations 1
smoothSolver:  Solving for e, Initial residual = 0.000824794, Final residual = 1.89403e-16, No Iterations 3
smoothSolver:  Solving for p, Initial residual = 0.000364807, Final residual = 2.80497e-16, No Iterations 2
diagonal:  Solving for rho, Initial residual = 0, Final residual = 0, No Iterations 0
time step continuity errors : sum local = 5.40881e-16, global = -1.0412e-16, cumulative = -5.92718e-15
PIMPLE: iteration 2
smoothSolver:  Solving for Ux, Initial residual = 3.20483e-05, Final residual = 1.18694e-17, No Iterations 1
smoothSolver:  Solving for e, Initial residual = 3.72738e-05, Final residual = 4.76372e-17, No Iterations 3
smoothSolver:  Solving for p, Initial residual = 7.96741e-06, Final residual = 1.45021e-17, No Iterations 2
diagonal:  Solving for rho, Initial residual = 0, Final residual = 0, No Iterations 0
time step continuity errors : sum local = 9.37328e-17, global = -1.11292e-17, cumulative = -5.93831e-15
PIMPLE: iteration 3
smoothSolver:  Solving for Ux, Initial residual = 2.03768e-05, Final residual = 9.62775e-18, No Iterations 1
smoothSolver:  Solving for e, Initial residual = 1.68952e-05, Final residual = 3.30742e-17, No Iterations 3
smoothSolver:  Solving for p, Initial residual = 1.93168e-06, Final residual = 1.15099e-17, No Iterations 2
diagonal:  Solving for rho, Initial residual = 0, Final residual = 0, No Iterations 0
time step continuity errors : sum local = 8.35929e-17, global = 1.43443e-17, cumulative = -5.92396e-15
ExecutionTime = 0.14 s  ClockTime = 0 s

Courant Number mean: 0.000907105 max: 0.0262192
Time = 0.00039

PIMPLE: iteration 1
diagonal:  Solving for rho, Initial residual = 0, Final residual = 0, No Iterations 0
smoothSolver:  Solving for Ux, Initial residual = 0.00491977, Final residual = 1.33252e-17, No Iterations 1
smoothSolver:  Solving for e, Initial residual = 0.000833713, Final residual = 1.99637e-16, No Iterations 3
smoothSolver:  Solving for p, Initial residual = 0.000362609, Final residual = 2.81895e-16, No Iterations 2
diagonal:  Solving for rho, Initial residual = 0, Final residual = 0, No Iterations 0
time step continuity errors : sum local = 5.53246e-16, global = -1.34293e-16, cumulative = -6.05826e-15
PIMPLE: iteration 2
smoothSolver:  Solving for Ux, Initial residual = 3.1938e-05, Final residual = 1.04123e-17, No Iterations 1
smoothSolver:  Solving for e, Initial residual = 3.81388e-05, Final residual = 4.80588e-17, No Iterations 3
smoothSolver:  Solving for p, Initial residual = 8.07734e-06, Final residual = 1.50377e-17, No Iterations 2
diagonal:  Solving for rho, Initial residual = 0, Final residual = 0, No Iterations 0
time step continuity errors : sum local = 8.87865e-17, global = -2.94306e-17, cumulative = -6.08769e-15
PIMPLE: iteration 3
smoothSolver:  Solving for Ux, Initial residual = 2.01136e-05, Final residual = 1.84732e-17, No Iterations 1
smoothSolver:  Solving for e, Initial residual = 1.6743e-05, Final residual = 3.32406e-17, No Iterations 3
smoothSolver:  Solving for p, Initial residual = 1.91085e-06, Final residual = 1.1477e-17, No Iterations 2
diagonal:  Solving for rho, Initial residual = 0, Final residual = 0, No Iterations 0
time step continuity errors : sum local = 7.41949e-17, global = -2.62155e-17, cumulative = -6.1139e-15
ExecutionTime = 0.14 s  ClockTime = 0 s

Courant Number mean: 0.000926833 max: 0.0261862
Time = 0.0004

PIMPLE: iteration 1
diagonal:  Solving for rho, Initial residual = 0, Final residual = 0, No Iterations 0
smoothSolver:  Solving for Ux, Initial residual = 0.00483405, Final residual = 1.04393e-17, No Iterations 1
smoothSolver:  Solving for e, Initial residual = 0.000848589, Final residual = 2.26402e-16, No Iterations 3
smoothSolver:  Solving for p, Initial residual = 0.000360211, Final residual = 2.77747e-16, No Iterations 2
diagonal:  Solving for rho, Initial residual = 0, Final residual = 0, No Iterations 0
time step continuity errors : sum local = 5.24805e-16, global = -1.01894e-16, cumulative = -6.2158e-15
PIMPLE: iteration 2
smoothSolver:  Solving for Ux, Initial residual = 3.21202e-05, Final residual = 1.59022e-17, No Iterations 1
smoothSolver:  Solving for e, Initial residual = 3.91732e-05, Final residual = 5.66826e-17, No Iterations 3
smoothSolver:  Solving for p, Initial residual = 8.21331e-06, Final residual = 1.83997e-17, No Iterations 2
diagonal:  Solving for rho, Initial residual = 0, Final residual = 0, No Iterations 0
time step continuity errors : sum local = 8.48295e-17, global = -2.99253e-17, cumulative = -6.24572e-15
PIMPLE: iteration 3
smoothSolver:  Solving for Ux, Initial residual = 2.10385e-05, Final residual = 1.29918e-17, No Iterations 1
smoothSolver:  Solving for e, Initial residual = 1.66307e-05, Final residual = 3.12599e-17, No Iterations 3
smoothSolver:  Solving for p, Initial residual = 1.89416e-06, Final residual = 1.32966e-17, No Iterations 2
diagonal:  Solving for rho, Initial residual = 0, Final residual = 0, No Iterations 0
time step continuity errors : sum local = 6.40549e-17, global = -2.79467e-17, cumulative = -6.27367e-15
ExecutionTime = 0.14 s  ClockTime = 0 s

Courant Number mean: 0.000946877 max: 0.026176
Time = 0.00041

PIMPLE: iteration 1
diagonal:  Solving for rho, Initial residual = 0, Final residual = 0, No Iterations 0
smoothSolver:  Solving for Ux, Initial residual = 0.00475137, Final residual = 8.01779e-18, No Iterations 1
smoothSolver:  Solving for e, Initial residual = 0.000863961, Final residual = 2.59696e-16, No Iterations 3
smoothSolver:  Solving for p, Initial residual = 0.000357651, Final residual = 2.812e-16, No Iterations 2
diagonal:  Solving for rho, Initial residual = 0, Final residual = 0, No Iterations 0
time step continuity errors : sum local = 5.38902e-16, global = -1.15002e-16, cumulative = -6.38867e-15
PIMPLE: iteration 2
smoothSolver:  Solving for Ux, Initial residual = 3.23313e-05, Final residual = 1.20183e-17, No Iterations 1
smoothSolver:  Solving for e, Initial residual = 4.00262e-05, Final residual = 6.6374e-17, No Iterations 3
smoothSolver:  Solving for p, Initial residual = 8.32499e-06, Final residual = 1.53432e-17, No Iterations 2
diagonal:  Solving for rho, Initial residual = 0, Final residual = 0, No Iterations 0
time step continuity errors : sum local = 7.14744e-17, global = -2.8936e-17, cumulative = -6.41761e-15
PIMPLE: iteration 3
smoothSolver:  Solving for Ux, Initial residual = 2.18625e-05, Final residual = 8.81947e-18, No Iterations 1
smoothSolver:  Solving for e, Initial residual = 1.65071e-05, Final residual = 3.66248e-17, No Iterations 3
smoothSolver:  Solving for p, Initial residual = 1.87564e-06, Final residual = 1.33144e-17, No Iterations 2
diagonal:  Solving for rho, Initial residual = 0, Final residual = 0, No Iterations 0
time step continuity errors : sum local = 7.61734e-17, global = -1.83014e-17, cumulative = -6.43591e-15
ExecutionTime = 0.14 s  ClockTime = 0 s

Courant Number mean: 0.000967252 max: 0.026221
Time = 0.00042

PIMPLE: iteration 1
diagonal:  Solving for rho, Initial residual = 0, Final residual = 0, No Iterations 0
smoothSolver:  Solving for Ux, Initial residual = 0.00467165, Final residual = 1.12044e-17, No Iterations 1
smoothSolver:  Solving for e, Initial residual = 0.000879684, Final residual = 3.02508e-16, No Iterations 3
smoothSolver:  Solving for p, Initial residual = 0.000354941, Final residual = 2.77358e-16, No Iterations 2
diagonal:  Solving for rho, Initial residual = 0, Final residual = 0, No Iterations 0
time step continuity errors : sum local = 5.36676e-16, global = -1.02884e-16, cumulative = -6.53879e-15
PIMPLE: iteration 2
smoothSolver:  Solving for Ux, Initial residual = 3.25693e-05, Final residual = 1.63993e-17, No Iterations 1
smoothSolver:  Solving for e, Initial residual = 4.08655e-05, Final residual = 7.12355e-17, No Iterations 3
smoothSolver:  Solving for p, Initial residual = 8.43001e-06, Final residual = 1.67531e-17, No Iterations 2
diagonal:  Solving for rho, Initial residual = 0, Final residual = 0, No Iterations 0
time step continuity errors : sum local = 7.76573e-17, global = -1.97853e-17, cumulative = -6.55858e-15
PIMPLE: iteration 3
smoothSolver:  Solving for Ux, Initial residual = 2.25674e-05, Final residual = 9.05494e-18, No Iterations 1
smoothSolver:  Solving for e, Initial residual = 1.63453e-05, Final residual = 3.78609e-17, No Iterations 3
smoothSolver:  Solving for p, Initial residual = 1.85255e-06, Final residual = 1.19647e-17, No Iterations 2
diagonal:  Solving for rho, Initial residual = 0, Final residual = 0, No Iterations 0
time step continuity errors : sum local = 6.8012e-17, global = -1.85487e-17, cumulative = -6.57713e-15
ExecutionTime = 0.15 s  ClockTime = 0 s

Courant Number mean: 0.000987978 max: 0.0266697
Time = 0.00043

PIMPLE: iteration 1
diagonal:  Solving for rho, Initial residual = 0, Final residual = 0, No Iterations 0
smoothSolver:  Solving for Ux, Initial residual = 0.00459476, Final residual = 1.45258e-17, No Iterations 1
smoothSolver:  Solving for e, Initial residual = 0.000895757, Final residual = 3.58276e-16, No Iterations 3
smoothSolver:  Solving for p, Initial residual = 0.000352044, Final residual = 2.73683e-16, No Iterations 2
diagonal:  Solving for rho, Initial residual = 0, Final residual = 0, No Iterations 0
time step continuity errors : sum local = 5.31235e-16, global = -1.12282e-16, cumulative = -6.68941e-15
PIMPLE: iteration 2
smoothSolver:  Solving for Ux, Initial residual = 3.28384e-05, Final residual = 1.36429e-17, No Iterations 1
smoothSolver:  Solving for e, Initial residual = 4.17143e-05, Final residual = 7.65028e-17, No Iterations 3
smoothSolver:  Solving for p, Initial residual = 8.52937e-06, Final residual = 1.77019e-17, No Iterations 2
diagonal:  Solving for rho, Initial residual = 0, Final residual = 0, No Iterations 0
time step continuity errors : sum local = 1.03131e-16, global = -2.54736e-17, cumulative = -6.71488e-15
PIMPLE: iteration 3
smoothSolver:  Solving for Ux, Initial residual = 2.31579e-05, Final residual = 1.47483e-17, No Iterations 1
smoothSolver:  Solving for e, Initial residual = 1.61452e-05, Final residual = 3.47826e-17, No Iterations 3
smoothSolver:  Solving for p, Initial residual = 1.82444e-06, Final residual = 1.51793e-17, No Iterations 2
diagonal:  Solving for rho, Initial residual = 0, Final residual = 0, No Iterations 0
time step continuity errors : sum local = 9.64533e-17, global = -2.47316e-17, cumulative = -6.73961e-15
ExecutionTime = 0.15 s  ClockTime = 0 s

Courant Number mean: 0.00100908 max: 0.0271054
Time = 0.00044

PIMPLE: iteration 1
diagonal:  Solving for rho, Initial residual = 0, Final residual = 0, No Iterations 0
smoothSolver:  Solving for Ux, Initial residual = 0.00452056, Final residual = 1.42072e-17, No Iterations 1
smoothSolver:  Solving for e, Initial residual = 0.000912191, Final residual = 4.10543e-16, No Iterations 3
smoothSolver:  Solving for p, Initial residual = 0.000348953, Final residual = 2.75572e-16, No Iterations 2
diagonal:  Solving for rho, Initial residual = 0, Final residual = 0, No Iterations 0
time step continuity errors : sum local = 5.25794e-16, global = -1.2168e-16, cumulative = -6.86129e-15
PIMPLE: iteration 2
smoothSolver:  Solving for Ux, Initial residual = 3.31474e-05, Final residual = 1.31261e-17, No Iterations 1
smoothSolver:  Solving for e, Initial residual = 4.26014e-05, Final residual = 8.60498e-17, No Iterations 3
smoothSolver:  Solving for p, Initial residual = 8.62793e-06, Final residual = 1.80929e-17, No Iterations 2
[...]
diagonal:  Solving for rho, Initial residual = 0, Final residual = 0, No Iterations 0
time step continuity errors : sum local = 1.60136e-16, global = -1.00085e-17, cumulative = -1.49852e-14
ExecutionTime = 2.41 s  ClockTime = 2 s

Courant Number mean: 0.0202968 max: 0.0336666
Time = 0.0099

PIMPLE: iteration 1
diagonal:  Solving for rho, Initial residual = 0, Final residual = 0, No Iterations 0
smoothSolver:  Solving for Ux, Initial residual = 0.00039629, Final residual = 4.13351e-17, No Iterations 1
smoothSolver:  Solving for e, Initial residual = 0.00081541, Final residual = 3.8453e-17, No Iterations 4
smoothSolver:  Solving for p, Initial residual = 0.00039634, Final residual = 3.17341e-16, No Iterations 2
diagonal:  Solving for rho, Initial residual = 0, Final residual = 0, No Iterations 0
time step continuity errors : sum local = 3.34336e-16, global = -2.80282e-16, cumulative = -1.52655e-14
PIMPLE: iteration 2
smoothSolver:  Solving for Ux, Initial residual = 3.50697e-07, Final residual = 3.91531e-17, No Iterations 1
smoothSolver:  Solving for e, Initial residual = 5.58335e-06, Final residual = 4.16265e-17, No Iterations 3
smoothSolver:  Solving for p, Initial residual = 1.77421e-06, Final residual = 7.21177e-17, No Iterations 2
diagonal:  Solving for rho, Initial residual = 0, Final residual = 0, No Iterations 0
time step continuity errors : sum local = 1.3914e-16, global = -2.10211e-17, cumulative = -1.52865e-14
PIMPLE: iteration 3
smoothSolver:  Solving for Ux, Initial residual = 1.24431e-07, Final residual = 3.73148e-17, No Iterations 1
smoothSolver:  Solving for e, Initial residual = 1.54269e-06, Final residual = 3.94795e-17, No Iterations 3
smoothSolver:  Solving for p, Initial residual = 4.03036e-07, Final residual = 6.81079e-17, No Iterations 2
diagonal:  Solving for rho, Initial residual = 0, Final residual = 0, No Iterations 0
time step continuity errors : sum local = 1.4915e-16, global = 1.00101e-18, cumulative = -1.52855e-14
ExecutionTime = 2.42 s  ClockTime = 2 s

Courant Number mean: 0.0203018 max: 0.0335563
Time = 0.00991

PIMPLE: iteration 1
diagonal:  Solving for rho, Initial residual = 0, Final residual = 0, No Iterations 0
smoothSolver:  Solving for Ux, Initial residual = 0.000394997, Final residual = 4.08558e-17, No Iterations 1
smoothSolver:  Solving for e, Initial residual = 0.000814328, Final residual = 3.26739e-17, No Iterations 4
smoothSolver:  Solving for p, Initial residual = 0.000395047, Final residual = 3.13858e-16, No Iterations 2
diagonal:  Solving for rho, Initial residual = 0, Final residual = 0, No Iterations 0
time step continuity errors : sum local = 3.06356e-16, global = -2.3227e-16, cumulative = -1.55178e-14
PIMPLE: iteration 2
smoothSolver:  Solving for Ux, Initial residual = 3.46293e-07, Final residual = 3.88861e-17, No Iterations 1
smoothSolver:  Solving for e, Initial residual = 5.36252e-06, Final residual = 3.92855e-17, No Iterations 3
smoothSolver:  Solving for p, Initial residual = 1.77563e-06, Final residual = 6.62966e-17, No Iterations 2
diagonal:  Solving for rho, Initial residual = 0, Final residual = 0, No Iterations 0
time step continuity errors : sum local = 1.44167e-16, global = -4.00465e-18, cumulative = -1.55218e-14
PIMPLE: iteration 3
smoothSolver:  Solving for Ux, Initial residual = 1.20654e-07, Final residual = 4.16417e-17, No Iterations 1
smoothSolver:  Solving for e, Initial residual = 1.51745e-06, Final residual = 3.74757e-17, No Iterations 3
smoothSolver:  Solving for p, Initial residual = 4.06174e-07, Final residual = 6.58759e-17, No Iterations 2
diagonal:  Solving for rho, Initial residual = 0, Final residual = 0, No Iterations 0
time step continuity errors : sum local = 1.4617e-16, global = -2.20256e-17, cumulative = -1.55438e-14
ExecutionTime = 2.42 s  ClockTime = 2 s

Courant Number mean: 0.0203068 max: 0.0334527
Time = 0.00992

PIMPLE: iteration 1
diagonal:  Solving for rho, Initial residual = 0, Final residual = 0, No Iterations 0
smoothSolver:  Solving for Ux, Initial residual = 0.000393717, Final residual = 3.93067e-17, No Iterations 1
smoothSolver:  Solving for e, Initial residual = 0.000813214, Final residual = 4.26358e-17, No Iterations 4
smoothSolver:  Solving for p, Initial residual = 0.000394046, Final residual = 3.02513e-16, No Iterations 2
diagonal:  Solving for rho, Initial residual = 0, Final residual = 0, No Iterations 0
time step continuity errors : sum local = 3.04401e-16, global = -2.00264e-16, cumulative = -1.57441e-14
PIMPLE: iteration 2
smoothSolver:  Solving for Ux, Initial residual = 3.41865e-07, Final residual = 3.92549e-17, No Iterations 1
smoothSolver:  Solving for e, Initial residual = 5.13905e-06, Final residual = 3.89287e-17, No Iterations 3
smoothSolver:  Solving for p, Initial residual = 1.75951e-06, Final residual = 6.75788e-17, No Iterations 2
diagonal:  Solving for rho, Initial residual = 0, Final residual = 0, No Iterations 0
time step continuity errors : sum local = 1.38182e-16, global = 2.40316e-17, cumulative = -1.572e-14
PIMPLE: iteration 3
smoothSolver:  Solving for Ux, Initial residual = 1.17246e-07, Final residual = 3.9079e-17, No Iterations 1
smoothSolver:  Solving for e, Initial residual = 1.55213e-06, Final residual = 3.14762e-17, No Iterations 3
smoothSolver:  Solving for p, Initial residual = 4.11637e-07, Final residual = 7.8626e-17, No Iterations 2
diagonal:  Solving for rho, Initial residual = 0, Final residual = 0, No Iterations 0
time step continuity errors : sum local = 1.57207e-16, global = 2.5033e-17, cumulative = -1.5695e-14
ExecutionTime = 2.42 s  ClockTime = 2 s

Courant Number mean: 0.0203119 max: 0.0333558
Time = 0.00993

PIMPLE: iteration 1
diagonal:  Solving for rho, Initial residual = 0, Final residual = 0, No Iterations 0
smoothSolver:  Solving for Ux, Initial residual = 0.000392462, Final residual = 3.95741e-17, No Iterations 1
smoothSolver:  Solving for e, Initial residual = 0.000811922, Final residual = 3.88742e-17, No Iterations 4
smoothSolver:  Solving for p, Initial residual = 0.000393327, Final residual = 3.21419e-16, No Iterations 2
diagonal:  Solving for rho, Initial residual = 0, Final residual = 0, No Iterations 0
time step continuity errors : sum local = 3.10457e-16, global = -2.38351e-16, cumulative = -1.59333e-14
PIMPLE: iteration 2
smoothSolver:  Solving for Ux, Initial residual = 3.37414e-07, Final residual = 4.09998e-17, No Iterations 1
smoothSolver:  Solving for e, Initial residual = 4.90415e-06, Final residual = 4.29232e-17, No Iterations 3
smoothSolver:  Solving for p, Initial residual = 1.73438e-06, Final residual = 7.78601e-17, No Iterations 2
diagonal:  Solving for rho, Initial residual = 0, Final residual = 0, No Iterations 0
time step continuity errors : sum local = 1.34197e-16, global = -8.01179e-18, cumulative = -1.59414e-14
PIMPLE: iteration 3
smoothSolver:  Solving for Ux, Initial residual = 1.14196e-07, Final residual = 4.13957e-17, No Iterations 1
smoothSolver:  Solving for e, Initial residual = 1.59602e-06, Final residual = 3.77247e-17, No Iterations 3
smoothSolver:  Solving for p, Initial residual = 4.21333e-07, Final residual = 6.84608e-17, No Iterations 2
diagonal:  Solving for rho, Initial residual = 0, Final residual = 0, No Iterations 0
time step continuity errors : sum local = 1.48218e-16, global = -7.64403e-33, cumulative = -1.59414e-14
ExecutionTime = 2.42 s  ClockTime = 2 s

Courant Number mean: 0.0203171 max: 0.0332654
Time = 0.00994

PIMPLE: iteration 1
diagonal:  Solving for rho, Initial residual = 0, Final residual = 0, No Iterations 0
smoothSolver:  Solving for Ux, Initial residual = 0.000391252, Final residual = 3.24269e-17, No Iterations 1
smoothSolver:  Solving for e, Initial residual = 0.000809717, Final residual = 3.75876e-17, No Iterations 4
smoothSolver:  Solving for p, Initial residual = 0.000394101, Final residual = 3.09282e-16, No Iterations 2
diagonal:  Solving for rho, Initial residual = 0, Final residual = 0, No Iterations 0
time step continuity errors : sum local = 3.41555e-16, global = -2.71441e-16, cumulative = -1.62128e-14
PIMPLE: iteration 2
smoothSolver:  Solving for Ux, Initial residual = 3.32904e-07, Final residual = 3.82871e-17, No Iterations 1
smoothSolver:  Solving for e, Initial residual = 4.72958e-06, Final residual = 4.3488e-17, No Iterations 3
smoothSolver:  Solving for p, Initial residual = 1.70565e-06, Final residual = 7.65966e-17, No Iterations 2
diagonal:  Solving for rho, Initial residual = 0, Final residual = 0, No Iterations 0
time step continuity errors : sum local = 1.36221e-16, global = 1.00163e-17, cumulative = -1.62028e-14
PIMPLE: iteration 3
smoothSolver:  Solving for Ux, Initial residual = 1.11547e-07, Final residual = 3.04426e-17, No Iterations 1
smoothSolver:  Solving for e, Initial residual = 1.64157e-06, Final residual = 3.57877e-17, No Iterations 3
smoothSolver:  Solving for p, Initial residual = 4.35301e-07, Final residual = 7.44591e-17, No Iterations 2
diagonal:  Solving for rho, Initial residual = 0, Final residual = 0, No Iterations 0
time step continuity errors : sum local = 1.6026e-16, global = -2.00326e-17, cumulative = -1.62228e-14
ExecutionTime = 2.43 s  ClockTime = 2 s

Courant Number mean: 0.0203224 max: 0.0331815
Time = 0.00995

PIMPLE: iteration 1
diagonal:  Solving for rho, Initial residual = 0, Final residual = 0, No Iterations 0
smoothSolver:  Solving for Ux, Initial residual = 0.000390102, Final residual = 3.69915e-17, No Iterations 1
smoothSolver:  Solving for e, Initial residual = 0.000807238, Final residual = 4.36251e-17, No Iterations 4
smoothSolver:  Solving for p, Initial residual = 0.000394788, Final residual = 3.14239e-16, No Iterations 2
diagonal:  Solving for rho, Initial residual = 0, Final residual = 0, No Iterations 0
time step continuity errors : sum local = 3.18567e-16, global = -2.26403e-16, cumulative = -1.64492e-14
PIMPLE: iteration 2
smoothSolver:  Solving for Ux, Initial residual = 3.28512e-07, Final residual = 3.66595e-17, No Iterations 1
smoothSolver:  Solving for e, Initial residual = 4.60738e-06, Final residual = 4.04799e-17, No Iterations 3
smoothSolver:  Solving for p, Initial residual = 1.68889e-06, Final residual = 7.39138e-17, No Iterations 2
diagonal:  Solving for rho, Initial residual = 0, Final residual = 0, No Iterations 0
time step continuity errors : sum local = 1.39248e-16, global = 3.00535e-18, cumulative = -1.64462e-14
PIMPLE: iteration 3
smoothSolver:  Solving for Ux, Initial residual = 1.09216e-07, Final residual = 4.06775e-17, No Iterations 1
smoothSolver:  Solving for e, Initial residual = 1.65583e-06, Final residual = 3.63869e-17, No Iterations 3
smoothSolver:  Solving for p, Initial residual = 4.36517e-07, Final residual = 7.98136e-17, No Iterations 2
diagonal:  Solving for rho, Initial residual = 0, Final residual = 0, No Iterations 0
time step continuity errors : sum local = 1.26225e-16, global = -2.20392e-17, cumulative = -1.64683e-14
ExecutionTime = 2.43 s  ClockTime = 2 s

Courant Number mean: 0.0203277 max: 0.033104
Time = 0.00996

PIMPLE: iteration 1
diagonal:  Solving for rho, Initial residual = 0, Final residual = 0, No Iterations 0
smoothSolver:  Solving for Ux, Initial residual = 0.000389002, Final residual = 3.69315e-17, No Iterations 1
smoothSolver:  Solving for e, Initial residual = 0.000804689, Final residual = 3.95404e-17, No Iterations 4
smoothSolver:  Solving for p, Initial residual = 0.000395287, Final residual = 3.17898e-16, No Iterations 2
diagonal:  Solving for rho, Initial residual = 0, Final residual = 0, No Iterations 0
time step continuity errors : sum local = 3.40658e-16, global = -2.82546e-16, cumulative = -1.67508e-14
PIMPLE: iteration 2
smoothSolver:  Solving for Ux, Initial residual = 3.24232e-07, Final residual = 4.08519e-17, No Iterations 1
smoothSolver:  Solving for e, Initial residual = 4.46709e-06, Final residual = 4.03593e-17, No Iterations 3
smoothSolver:  Solving for p, Initial residual = 1.68779e-06, Final residual = 6.7498e-17, No Iterations 2
diagonal:  Solving for rho, Initial residual = 0, Final residual = 0, No Iterations 0
time step continuity errors : sum local = 1.5029e-16, global = 6.01161e-18, cumulative = -1.67448e-14
PIMPLE: iteration 3
smoothSolver:  Solving for Ux, Initial residual = 1.0714e-07, Final residual = 3.65241e-17, No Iterations 1
smoothSolver:  Solving for e, Initial residual = 1.65901e-06, Final residual = 3.38369e-17, No Iterations 3
smoothSolver:  Solving for p, Initial residual = 4.34598e-07, Final residual = 6.25399e-17, No Iterations 2
diagonal:  Solving for rho, Initial residual = 0, Final residual = 0, No Iterations 0
time step continuity errors : sum local = 1.52294e-16, global = -3.40658e-17, cumulative = -1.67789e-14
ExecutionTime = 2.43 s  ClockTime = 2 s

Courant Number mean: 0.020333 max: 0.0330325
Time = 0.00997

PIMPLE: iteration 1
diagonal:  Solving for rho, Initial residual = 0, Final residual = 0, No Iterations 0
smoothSolver:  Solving for Ux, Initial residual = 0.000387933, Final residual = 4.24185e-17, No Iterations 1
smoothSolver:  Solving for e, Initial residual = 0.000802089, Final residual = 3.80468e-17, No Iterations 4
smoothSolver:  Solving for p, Initial residual = 0.000395639, Final residual = 3.10701e-16, No Iterations 2
diagonal:  Solving for rho, Initial residual = 0, Final residual = 0, No Iterations 0
time step continuity errors : sum local = 3.31691e-16, global = -2.41503e-16, cumulative = -1.70204e-14
PIMPLE: iteration 2
smoothSolver:  Solving for Ux, Initial residual = 3.20366e-07, Final residual = 4.00877e-17, No Iterations 1
smoothSolver:  Solving for e, Initial residual = 4.33886e-06, Final residual = 4.10493e-17, No Iterations 3
smoothSolver:  Solving for p, Initial residual = 1.68955e-06, Final residual = 6.70921e-17, No Iterations 2
diagonal:  Solving for rho, Initial residual = 0, Final residual = 0, No Iterations 0
time step continuity errors : sum local = 1.35282e-16, global = -1.50313e-17, cumulative = -1.70354e-14
PIMPLE: iteration 3
smoothSolver:  Solving for Ux, Initial residual = 1.05294e-07, Final residual = 4.20892e-17, No Iterations 1
smoothSolver:  Solving for e, Initial residual = 1.65382e-06, Final residual = 3.81179e-17, No Iterations 3
smoothSolver:  Solving for p, Initial residual = 4.30516e-07, Final residual = 7.37317e-17, No Iterations 2
diagonal:  Solving for rho, Initial residual = 0, Final residual = 0, No Iterations 0
time step continuity errors : sum local = 1.38288e-16, global = -1.00209e-17, cumulative = -1.70454e-14
ExecutionTime = 2.43 s  ClockTime = 2 s

Courant Number mean: 0.0203385 max: 0.0329669
Time = 0.00998

PIMPLE: iteration 1
diagonal:  Solving for rho, Initial residual = 0, Final residual = 0, No Iterations 0
smoothSolver:  Solving for Ux, Initial residual = 0.000386898, Final residual = 3.96959e-17, No Iterations 1
smoothSolver:  Solving for e, Initial residual = 0.000799477, Final residual = 3.19728e-17, No Iterations 4
smoothSolver:  Solving for p, Initial residual = 0.000395917, Final residual = 3.17922e-16, No Iterations 2
diagonal:  Solving for rho, Initial residual = 0, Final residual = 0, No Iterations 0
time step continuity errors : sum local = 3.12699e-16, global = -2.22498e-16, cumulative = -1.72679e-14
PIMPLE: iteration 2
smoothSolver:  Solving for Ux, Initial residual = 3.16858e-07, Final residual = 4.38021e-17, No Iterations 1
smoothSolver:  Solving for e, Initial residual = 4.24189e-06, Final residual = 4.15295e-17, No Iterations 3
smoothSolver:  Solving for p, Initial residual = 1.66892e-06, Final residual = 6.99297e-17, No Iterations 2
diagonal:  Solving for rho, Initial residual = 0, Final residual = 0, No Iterations 0
time step continuity errors : sum local = 1.37307e-16, global = 3.90874e-17, cumulative = -1.72288e-14
PIMPLE: iteration 3
smoothSolver:  Solving for Ux, Initial residual = 1.03659e-07, Final residual = 3.03845e-17, No Iterations 1
smoothSolver:  Solving for e, Initial residual = 1.65369e-06, Final residual = 3.70535e-17, No Iterations 3
smoothSolver:  Solving for p, Initial residual = 4.29248e-07, Final residual = 7.13537e-17, No Iterations 2
diagonal:  Solving for rho, Initial residual = 0, Final residual = 0, No Iterations 0
time step continuity errors : sum local = 1.63866e-16, global = -2.75616e-17, cumulative = -1.72564e-14
ExecutionTime = 2.43 s  ClockTime = 2 s

Courant Number mean: 0.0203439 max: 0.032907
Time = 0.00999

PIMPLE: iteration 1
diagonal:  Solving for rho, Initial residual = 0, Final residual = 0, No Iterations 0
smoothSolver:  Solving for Ux, Initial residual = 0.000385898, Final residual = 3.27396e-17, No Iterations 1
smoothSolver:  Solving for e, Initial residual = 0.000796815, Final residual = 3.2674e-17, No Iterations 4
smoothSolver:  Solving for p, Initial residual = 0.000396127, Final residual = 3.15542e-16, No Iterations 2
diagonal:  Solving for rho, Initial residual = 0, Final residual = 0, No Iterations 0
time step continuity errors : sum local = 3.30289e-16, global = -2.45085e-16, cumulative = -1.75015e-14
PIMPLE: iteration 2
smoothSolver:  Solving for Ux, Initial residual = 3.13522e-07, Final residual = 4.42216e-17, No Iterations 1
smoothSolver:  Solving for e, Initial residual = 4.1203e-06, Final residual = 4.3494e-17, No Iterations 3
smoothSolver:  Solving for p, Initial residual = 1.66915e-06, Final residual = 8.19424e-17, No Iterations 2
diagonal:  Solving for rho, Initial residual = 0, Final residual = 0, No Iterations 0
time step continuity errors : sum local = 1.55371e-16, global = -3.50838e-17, cumulative = -1.75366e-14
PIMPLE: iteration 3
smoothSolver:  Solving for Ux, Initial residual = 1.02226e-07, Final residual = 3.30492e-17, No Iterations 1
smoothSolver:  Solving for e, Initial residual = 1.67072e-06, Final residual = 3.31935e-17, No Iterations 3
smoothSolver:  Solving for p, Initial residual = 4.3154e-07, Final residual = 7.00565e-17, No Iterations 2
diagonal:  Solving for rho, Initial residual = 0, Final residual = 0, No Iterations 0
time step continuity errors : sum local = 1.45848e-16, global = -2.35562e-17, cumulative = -1.75601e-14
ExecutionTime = 2.44 s  ClockTime = 2 s

Courant Number mean: 0.0203495 max: 0.0328524
Time = 0.01

PIMPLE: iteration 1
diagonal:  Solving for rho, Initial residual = 0, Final residual = 0, No Iterations 0
smoothSolver:  Solving for Ux, Initial residual = 0.000384938, Final residual = 3.47915e-17, No Iterations 1
smoothSolver:  Solving for e, Initial residual = 0.000794299, Final residual = 3.1358e-17, No Iterations 4
smoothSolver:  Solving for p, Initial residual = 0.000396211, Final residual = 3.02764e-16, No Iterations 2
diagonal:  Solving for rho, Initial residual = 0, Final residual = 0, No Iterations 0
time step continuity errors : sum local = 2.97255e-16, global = -2.20059e-16, cumulative = -1.77802e-14
PIMPLE: iteration 2
smoothSolver:  Solving for Ux, Initial residual = 3.10343e-07, Final residual = 3.8231e-17, No Iterations 1
smoothSolver:  Solving for e, Initial residual = 4.12982e-06, Final residual = 4.19071e-17, No Iterations 3
smoothSolver:  Solving for p, Initial residual = 1.71139e-06, Final residual = 7.20463e-17, No Iterations 2
diagonal:  Solving for rho, Initial residual = 0, Final residual = 0, No Iterations 0
time step continuity errors : sum local = 1.6141e-16, global = 3.00763e-18, cumulative = -1.77772e-14
PIMPLE: iteration 3
smoothSolver:  Solving for Ux, Initial residual = 1.00951e-07, Final residual = 3.3982e-17, No Iterations 1
smoothSolver:  Solving for e, Initial residual = 1.65404e-06, Final residual = 3.43957e-17, No Iterations 3
smoothSolver:  Solving for p, Initial residual = 4.26805e-07, Final residual = 7.38423e-17, No Iterations 2
diagonal:  Solving for rho, Initial residual = 0, Final residual = 0, No Iterations 0
time step continuity errors : sum local = 1.40858e-16, global = -1.35344e-17, cumulative = -1.77907e-14
ExecutionTime = 2.44 s  ClockTime = 2 s

    functionObjects::mag mag(U) writing field: mag(U)
End

