/*---------------------------------------------------------------------------*\
| =========                 |                                                 |
| \\      /  F ield         | OpenFOAM: The Open Source CFD Toolbox           |
|  \\    /   O peration     | Version:  2012                                  |
|   \\  /    A nd           | Website:  www.openfoam.com                      |
|    \\/     M anipulation  |                                                 |
\*---------------------------------------------------------------------------*/
Build  : _269d0ffd5c-20210619 OPENFOAM=2012 patch=210618
Arch   : "LSB;label=32;scalar=64"
Exec   : mhdPimpleFoam
Date   : May 26 2022
Time   : 14:52:45
Host   : gabrielmarconcini-Lenovo-G50-80
PID    : 21472
I/O    : uncollated
Case   : /home/gabrielmarconcini/Documentos/TCC/PTCC/Poiseuille/mhdPimpleFoam/sim1
nProcs : 1
trapFpe: Floating point exception trapping enabled (FOAM_SIGFPE).
fileModificationChecking : Monitoring run-time modified files using timeStampMaster (fileModificationSkew 5, maxFileModificationPolls 20)
allowSystemOperations : Allowing user-supplied system call operations

// * * * * * * * * * * * * * * * * * * * * * * * * * * * * * * * * * * * * * //
Create time

Create mesh for time = 0


PIMPLE: Operating solver in PISO mode


BPISO: Operating solver in PISO mode

Reading thermophysical properties

Selecting thermodynamics package 
{
    type            hePsiThermo;
    mixture         pureMixture;
    transport       const;
    thermo          eConst;
    equationOfState perfectGas;
    specie          specie;
    energy          sensibleInternalEnergy;
}

Reading field U

Reading/calculating face flux field phi

Reading/calculating face flux field incompressible phi

Creating turbulence model

Selecting turbulence model type laminar
Selecting laminar stress model Stokes
Creating field dpdt

Creating field kinetic energy K

No MRF models present

No finite volume options present
Reading transportProperties

Reading field pB

Reading field B

Calculating face flux phiB

Creating field magnetic energy KB

Courant Number mean: 2.5e-05 max: 0.0025

Starting time loop

Courant Number mean: 2.5e-05 max: 0.0025
deltaT = 0.0012
Time = 0.0012

PIMPLE: iteration 1
diagonal:  Solving for rho, Initial residual = 0, Final residual = 0, No Iterations 0
smoothSolver:  Solving for Ux, Initial residual = 1, Final residual = 1.203462824e-07, No Iterations 7
smoothSolver:  Solving for Uy, Initial residual = 1, Final residual = 1.403152862e-07, No Iterations 6
smoothSolver:  Solving for e, Initial residual = 0.9999999999, Final residual = 4.312966339e-07, No Iterations 10
DICPCG:  Solving for p, Initial residual = 1, Final residual = 8.766687096e-07, No Iterations 16
diagonal:  Solving for rho, Initial residual = 0, Final residual = 0, No Iterations 0
time step continuity errors : sum local = 7.139043418e-11, global = 1.705071731e-11, cumulative = 1.705071731e-11
smoothSolver:  Solving for e, Initial residual = 0.3580483376, Final residual = 5.039476146e-07, No Iterations 9
DICPCG:  Solving for p, Initial residual = 0.15507153, Final residual = 8.151828505e-07, No Iterations 13
diagonal:  Solving for rho, Initial residual = 0, Final residual = 0, No Iterations 0
time step continuity errors : sum local = 2.593461244e-10, global = 5.266345245e-11, cumulative = 6.971416976e-11
smoothSolver:  Solving for e, Initial residual = 0.07995362562, Final residual = 6.439255023e-07, No Iterations 8
DICPCG:  Solving for p, Initial residual = 0.02519918347, Final residual = 3.863684342e-07, No Iterations 12
diagonal:  Solving for rho, Initial residual = 0, Final residual = 0, No Iterations 0
time step continuity errors : sum local = 1.209074021e-10, global = 3.056733412e-11, cumulative = 1.002815039e-10
smoothSolver:  Solving for Bx, Initial residual = 0, Final residual = 0, No Iterations 0
smoothSolver:  Solving for By, Initial residual = 0, Final residual = 0, No Iterations 0
DICPCG:  Solving for pB, Initial residual = 0, Final residual = 0, No Iterations 0
magnetic flux divergence error = 0
smoothSolver:  Solving for Bx, Initial residual = 0, Final residual = 0, No Iterations 0
smoothSolver:  Solving for By, Initial residual = 0, Final residual = 0, No Iterations 0
DICPCG:  Solving for pB, Initial residual = 0, Final residual = 0, No Iterations 0
magnetic flux divergence error = 0
smoothSolver:  Solving for Bx, Initial residual = 0, Final residual = 0, No Iterations 0
smoothSolver:  Solving for By, Initial residual = 0, Final residual = 0, No Iterations 0
DICPCG:  Solving for pB, Initial residual = 0, Final residual = 0, No Iterations 0
magnetic flux divergence error = 0
ExecutionTime = 0.08 s  ClockTime = 0 s

Courant Number mean: 0.0001349116152 max: 0.005807979898
deltaT = 0.00144
Time = 0.00264

PIMPLE: iteration 1
diagonal:  Solving for rho, Initial residual = 0, Final residual = 0, No Iterations 0
smoothSolver:  Solving for Ux, Initial residual = 0.2552296914, Final residual = 2.541240408e-07, No Iterations 7
smoothSolver:  Solving for Uy, Initial residual = 0.3976495427, Final residual = 2.224123121e-07, No Iterations 7
smoothSolver:  Solving for e, Initial residual = 0.244463941, Final residual = 3.367493945e-07, No Iterations 11
DICPCG:  Solving for p, Initial residual = 0.2869962251, Final residual = 6.534558868e-07, No Iterations 16
diagonal:  Solving for rho, Initial residual = 0, Final residual = 0, No Iterations 0
time step continuity errors : sum local = 2.651588882e-10, global = 5.431945512e-11, cumulative = 1.54600959e-10
smoothSolver:  Solving for e, Initial residual = 0.1451036591, Final residual = 4.992594875e-07, No Iterations 10
DICPCG:  Solving for p, Initial residual = 0.04006921577, Final residual = 9.155098624e-07, No Iterations 13
diagonal:  Solving for rho, Initial residual = 0, Final residual = 0, No Iterations 0
time step continuity errors : sum local = 6.077172177e-10, global = 1.162288231e-10, cumulative = 2.708297821e-10
smoothSolver:  Solving for e, Initial residual = 0.03746078364, Final residual = 4.324439978e-07, No Iterations 9
DICPCG:  Solving for p, Initial residual = 0.02325578357, Final residual = 4.958538923e-07, No Iterations 13
diagonal:  Solving for rho, Initial residual = 0, Final residual = 0, No Iterations 0
time step continuity errors : sum local = 3.271563003e-10, global = -1.573818798e-11, cumulative = 2.550915941e-10
smoothSolver:  Solving for Bx, Initial residual = 0, Final residual = 0, No Iterations 0
smoothSolver:  Solving for By, Initial residual = 0, Final residual = 0, No Iterations 0
DICPCG:  Solving for pB, Initial residual = 0, Final residual = 0, No Iterations 0
magnetic flux divergence error = 0
smoothSolver:  Solving for Bx, Initial residual = 0, Final residual = 0, No Iterations 0
smoothSolver:  Solving for By, Initial residual = 0, Final residual = 0, No Iterations 0
DICPCG:  Solving for pB, Initial residual = 0, Final residual = 0, No Iterations 0
magnetic flux divergence error = 0
smoothSolver:  Solving for Bx, Initial residual = 0, Final residual = 0, No Iterations 0
smoothSolver:  Solving for By, Initial residual = 0, Final residual = 0, No Iterations 0
DICPCG:  Solving for pB, Initial residual = 0, Final residual = 0, No Iterations 0
magnetic flux divergence error = 0
ExecutionTime = 0.11 s  ClockTime = 0 s

Courant Number mean: 0.0003590515911 max: 0.009998485521
deltaT = 0.001728
Time = 0.004368

PIMPLE: iteration 1
diagonal:  Solving for rho, Initial residual = 0, Final residual = 0, No Iterations 0
smoothSolver:  Solving for Ux, Initial residual = 0.1702755408, Final residual = 8.56718775e-07, No Iterations 7
smoothSolver:  Solving for Uy, Initial residual = 0.2794229281, Final residual = 9.133527892e-07, No Iterations 7
smoothSolver:  Solving for e, Initial residual = 0.1573266459, Final residual = 5.51227047e-07, No Iterations 12
DICPCG:  Solving for p, Initial residual = 0.2108746497, Final residual = 5.383534772e-07, No Iterations 18
diagonal:  Solving for rho, Initial residual = 0, Final residual = 0, No Iterations 0
time step continuity errors : sum local = 4.139089691e-10, global = 7.478743321e-11, cumulative = 3.298790273e-10
smoothSolver:  Solving for e, Initial residual = 0.08796699202, Final residual = 7.187822691e-07, No Iterations 11
DICPCG:  Solving for p, Initial residual = 0.03346286762, Final residual = 7.1577473e-07, No Iterations 15
diagonal:  Solving for rho, Initial residual = 0, Final residual = 0, No Iterations 0
time step continuity errors : sum local = 7.565293416e-10, global = 2.459678446e-10, cumulative = 5.75846872e-10
smoothSolver:  Solving for e, Initial residual = 0.02448076177, Final residual = 5.036986485e-07, No Iterations 10
DICPCG:  Solving for p, Initial residual = 0.01614342094, Final residual = 6.727577489e-07, No Iterations 14
diagonal:  Solving for rho, Initial residual = 0, Final residual = 0, No Iterations 0
time step continuity errors : sum local = 7.050055381e-10, global = -8.132741049e-11, cumulative = 4.945194615e-10
smoothSolver:  Solving for Bx, Initial residual = 0, Final residual = 0, No Iterations 0
smoothSolver:  Solving for By, Initial residual = 0, Final residual = 0, No Iterations 0
DICPCG:  Solving for pB, Initial residual = 0, Final residual = 0, No Iterations 0
magnetic flux divergence error = 0
smoothSolver:  Solving for Bx, Initial residual = 0, Final residual = 0, No Iterations 0
smoothSolver:  Solving for By, Initial residual = 0, Final residual = 0, No Iterations 0
DICPCG:  Solving for pB, Initial residual = 0, Final residual = 0, No Iterations 0
magnetic flux divergence error = 0
smoothSolver:  Solving for Bx, Initial residual = 0, Final residual = 0, No Iterations 0
smoothSolver:  Solving for By, Initial residual = 0, Final residual = 0, No Iterations 0
DICPCG:  Solving for pB, Initial residual = 0, Final residual = 0, No Iterations 0
magnetic flux divergence error = 0
ExecutionTime = 0.15 s  ClockTime = 0 s

Courant Number mean: 0.0007246086035 max: 0.01439358402
deltaT = 0.0020736
Time = 0.0064416

PIMPLE: iteration 1
diagonal:  Solving for rho, Initial residual = 0, Final residual = 0, No Iterations 0
smoothSolver:  Solving for Ux, Initial residual = 0.1290284915, Final residual = 6.075167739e-07, No Iterations 8
smoothSolver:  Solving for Uy, Initial residual = 0.2139655778, Final residual = 6.965311054e-07, No Iterations 8
smoothSolver:  Solving for e, Initial residual = 0.1330032257, Final residual = 4.237744364e-07, No Iterations 14
DICPCG:  Solving for p, Initial residual = 0.1425345115, Final residual = 6.856944952e-07, No Iterations 19
diagonal:  Solving for rho, Initial residual = 0, Final residual = 0, No Iterations 0
time step continuity errors : sum local = 8.056319157e-10, global = 1.197984499e-10, cumulative = 6.143179114e-10
smoothSolver:  Solving for e, Initial residual = 0.06650405651, Final residual = 4.861126209e-07, No Iterations 13
DICPCG:  Solving for p, Initial residual = 0.02255148814, Final residual = 8.577197242e-07, No Iterations 16
diagonal:  Solving for rho, Initial residual = 0, Final residual = 0, No Iterations 0
time step continuity errors : sum local = 1.27992311e-09, global = 3.472970223e-10, cumulative = 9.616149337e-10
smoothSolver:  Solving for e, Initial residual = 0.01686108693, Final residual = 6.836496787e-07, No Iterations 11
DICPCG:  Solving for p, Initial residual = 0.01138534112, Final residual = 9.607346251e-07, No Iterations 14
diagonal:  Solving for rho, Initial residual = 0, Final residual = 0, No Iterations 0
time step continuity errors : sum local = 1.419824467e-09, global = -1.396201831e-10, cumulative = 8.219947505e-10
smoothSolver:  Solving for Bx, Initial residual = 0, Final residual = 0, No Iterations 0
smoothSolver:  Solving for By, Initial residual = 0, Final residual = 0, No Iterations 0
DICPCG:  Solving for pB, Initial residual = 0, Final residual = 0, No Iterations 0
magnetic flux divergence error = 0
smoothSolver:  Solving for Bx, Initial residual = 0, Final residual = 0, No Iterations 0
smoothSolver:  Solving for By, Initial residual = 0, Final residual = 0, No Iterations 0
DICPCG:  Solving for pB, Initial residual = 0, Final residual = 0, No Iterations 0
magnetic flux divergence error = 0
smoothSolver:  Solving for Bx, Initial residual = 0, Final residual = 0, No Iterations 0
smoothSolver:  Solving for By, Initial residual = 0, Final residual = 0, No Iterations 0
DICPCG:  Solving for pB, Initial residual = 0, Final residual = 0, No Iterations 0
magnetic flux divergence error = 0
ExecutionTime = 0.18 s  ClockTime = 0 s

Courant Number mean: 0.001282536979 max: 0.01911028998
deltaT = 0.00248832
Time = 0.00892992

PIMPLE: iteration 1
diagonal:  Solving for rho, Initial residual = 0, Final residual = 0, No Iterations 0
smoothSolver:  Solving for Ux, Initial residual = 0.1099724883, Final residual = 6.029663374e-07, No Iterations 9
smoothSolver:  Solving for Uy, Initial residual = 0.1730819883, Final residual = 6.801313845e-07, No Iterations 9
smoothSolver:  Solving for e, Initial residual = 0.1175443247, Final residual = 4.633697194e-07, No Iterations 16
DICPCG:  Solving for p, Initial residual = 0.1163182937, Final residual = 9.15572378e-07, No Iterations 20
diagonal:  Solving for rho, Initial residual = 0, Final residual = 0, No Iterations 0
time step continuity errors : sum local = 1.487357808e-09, global = 1.492076374e-10, cumulative = 9.712023879e-10
smoothSolver:  Solving for e, Initial residual = 0.05789251246, Final residual = 4.819459613e-07, No Iterations 15
DICPCG:  Solving for p, Initial residual = 0.01686495143, Final residual = 8.867047285e-07, No Iterations 17
diagonal:  Solving for rho, Initial residual = 0, Final residual = 0, No Iterations 0
time step continuity errors : sum local = 1.744366959e-09, global = 2.924993133e-10, cumulative = 1.263701701e-09
smoothSolver:  Solving for e, Initial residual = 0.01325450589, Final residual = 4.958486001e-07, No Iterations 13
DICPCG:  Solving for p, Initial residual = 0.009179076162, Final residual = 6.700680914e-07, No Iterations 16
diagonal:  Solving for rho, Initial residual = 0, Final residual = 0, No Iterations 0
time step continuity errors : sum local = 1.304409851e-09, global = -1.36201842e-10, cumulative = 1.127499859e-09
smoothSolver:  Solving for Bx, Initial residual = 0, Final residual = 0, No Iterations 0
smoothSolver:  Solving for By, Initial residual = 0, Final residual = 0, No Iterations 0
DICPCG:  Solving for pB, Initial residual = 0, Final residual = 0, No Iterations 0
magnetic flux divergence error = 0
smoothSolver:  Solving for Bx, Initial residual = 0, Final residual = 0, No Iterations 0
smoothSolver:  Solving for By, Initial residual = 0, Final residual = 0, No Iterations 0
DICPCG:  Solving for pB, Initial residual = 0, Final residual = 0, No Iterations 0
magnetic flux divergence error = 0
smoothSolver:  Solving for Bx, Initial residual = 0, Final residual = 0, No Iterations 0
smoothSolver:  Solving for By, Initial residual = 0, Final residual = 0, No Iterations 0
DICPCG:  Solving for pB, Initial residual = 0, Final residual = 0, No Iterations 0
magnetic flux divergence error = 0
ExecutionTime = 0.21 s  ClockTime = 0 s

Courant Number mean: 0.002115864103 max: 0.02456581041
deltaT = 0.002985984
Time = 0.011915904

PIMPLE: iteration 1
diagonal:  Solving for rho, Initial residual = 0, Final residual = 0, No Iterations 0
smoothSolver:  Solving for Ux, Initial residual = 0.1016679755, Final residual = 7.816162022e-07, No Iterations 10
smoothSolver:  Solving for Uy, Initial residual = 0.1463474571, Final residual = 8.188738768e-07, No Iterations 10
smoothSolver:  Solving for e, Initial residual = 0.1102392673, Final residual = 6.737500862e-07, No Iterations 18
DICPCG:  Solving for p, Initial residual = 0.1051500366, Final residual = 8.916959721e-07, No Iterations 22
diagonal:  Solving for rho, Initial residual = 0, Final residual = 0, No Iterations 0
time step continuity errors : sum local = 1.885983119e-09, global = 2.532932088e-10, cumulative = 1.380793068e-09
smoothSolver:  Solving for e, Initial residual = 0.05474805418, Final residual = 6.478798296e-07, No Iterations 17
DICPCG:  Solving for p, Initial residual = 0.01547700542, Final residual = 7.748268816e-07, No Iterations 19
diagonal:  Solving for rho, Initial residual = 0, Final residual = 0, No Iterations 0
time step continuity errors : sum local = 1.917194952e-09, global = 2.370804294e-10, cumulative = 1.617873497e-09
smoothSolver:  Solving for e, Initial residual = 0.01205286925, Final residual = 9.95226146e-07, No Iterations 14
DICPCG:  Solving for p, Initial residual = 0.008505861954, Final residual = 9.874488054e-07, No Iterations 17
diagonal:  Solving for rho, Initial residual = 0, Final residual = 0, No Iterations 0
time step continuity errors : sum local = 2.415541714e-09, global = -2.401840206e-10, cumulative = 1.377689477e-09
smoothSolver:  Solving for Bx, Initial residual = 0, Final residual = 0, No Iterations 0
smoothSolver:  Solving for By, Initial residual = 0, Final residual = 0, No Iterations 0
DICPCG:  Solving for pB, Initial residual = 0, Final residual = 0, No Iterations 0
magnetic flux divergence error = 0
smoothSolver:  Solving for Bx, Initial residual = 0, Final residual = 0, No Iterations 0
smoothSolver:  Solving for By, Initial residual = 0, Final residual = 0, No Iterations 0
DICPCG:  Solving for pB, Initial residual = 0, Final residual = 0, No Iterations 0
magnetic flux divergence error = 0
smoothSolver:  Solving for Bx, Initial residual = 0, Final residual = 0, No Iterations 0
smoothSolver:  Solving for By, Initial residual = 0, Final residual = 0, No Iterations 0
DICPCG:  Solving for pB, Initial residual = 0, Final residual = 0, No Iterations 0
magnetic flux divergence error = 0
ExecutionTime = 0.25 s  ClockTime = 0 s

Courant Number mean: 0.003347434062 max: 0.03085024548
deltaT = 0.0035831808
Time = 0.0154990848

PIMPLE: iteration 1
diagonal:  Solving for rho, Initial residual = 0, Final residual = 0, No Iterations 0
smoothSolver:  Solving for Ux, Initial residual = 0.09745997574, Final residual = 4.458066623e-07, No Iterations 12
smoothSolver:  Solving for Uy, Initial residual = 0.1295356397, Final residual = 4.187661865e-07, No Iterations 12
smoothSolver:  Solving for e, Initial residual = 0.108427764, Final residual = 6.907230981e-07, No Iterations 21
DICPCG:  Solving for p, Initial residual = 0.09865375835, Final residual = 6.631464889e-07, No Iterations 24
diagonal:  Solving for rho, Initial residual = 0, Final residual = 0, No Iterations 0
time step continuity errors : sum local = 1.749210493e-09, global = 2.472723258e-10, cumulative = 1.624961803e-09
smoothSolver:  Solving for e, Initial residual = 0.05565914516, Final residual = 6.200617703e-07, No Iterations 20
DICPCG:  Solving for p, Initial residual = 0.01463529881, Final residual = 6.706747764e-07, No Iterations 21
diagonal:  Solving for rho, Initial residual = 0, Final residual = 0, No Iterations 0
time step continuity errors : sum local = 2.011477896e-09, global = 2.466598042e-10, cumulative = 1.871621607e-09
smoothSolver:  Solving for e, Initial residual = 0.01170799785, Final residual = 6.802935708e-07, No Iterations 17
DICPCG:  Solving for p, Initial residual = 0.008191572048, Final residual = 7.222625088e-07, No Iterations 19
diagonal:  Solving for rho, Initial residual = 0, Final residual = 0, No Iterations 0
time step continuity errors : sum local = 2.138989095e-09, global = -1.745441457e-10, cumulative = 1.697077461e-09
smoothSolver:  Solving for Bx, Initial residual = 0, Final residual = 0, No Iterations 0
smoothSolver:  Solving for By, Initial residual = 0, Final residual = 0, No Iterations 0
DICPCG:  Solving for pB, Initial residual = 0, Final residual = 0, No Iterations 0
magnetic flux divergence error = 0
smoothSolver:  Solving for Bx, Initial residual = 0, Final residual = 0, No Iterations 0
smoothSolver:  Solving for By, Initial residual = 0, Final residual = 0, No Iterations 0
DICPCG:  Solving for pB, Initial residual = 0, Final residual = 0, No Iterations 0
magnetic flux divergence error = 0
smoothSolver:  Solving for Bx, Initial residual = 0, Final residual = 0, No Iterations 0
smoothSolver:  Solving for By, Initial residual = 0, Final residual = 0, No Iterations 0
DICPCG:  Solving for pB, Initial residual = 0, Final residual = 0, No Iterations 0
magnetic flux divergence error = 0
ExecutionTime = 0.28 s  ClockTime = 0 s

Courant Number mean: 0.005153121943 max: 0.0382059826
deltaT = 0.00429981696
Time = 0.01979890176

PIMPLE: iteration 1
diagonal:  Solving for rho, Initial residual = 0, Final residual = 0, No Iterations 0
smoothSolver:  Solving for Ux, Initial residual = 0.09702558003, Final residual = 9.387248105e-07, No Iterations 13
smoothSolver:  Solving for Uy, Initial residual = 0.1186802328, Final residual = 7.980961514e-07, No Iterations 13
smoothSolver:  Solving for e, Initial residual = 0.1116692692, Final residual = 9.798631685e-07, No Iterations 24
DICPCG:  Solving for p, Initial residual = 0.09632635638, Final residual = 8.54303545e-07, No Iterations 26
diagonal:  Solving for rho, Initial residual = 0, Final residual = 0, No Iterations 0
time step continuity errors : sum local = 2.714377683e-09, global = 2.820704608e-10, cumulative = 1.979147922e-09
smoothSolver:  Solving for e, Initial residual = 0.0596964791, Final residual = 8.429435747e-07, No Iterations 23
DICPCG:  Solving for p, Initial residual = 0.0145907776, Final residual = 9.150926809e-07, No Iterations 23
diagonal:  Solving for rho, Initial residual = 0, Final residual = 0, No Iterations 0
time step continuity errors : sum local = 3.218873341e-09, global = 1.836353581e-10, cumulative = 2.16278328e-09
smoothSolver:  Solving for e, Initial residual = 0.01172004999, Final residual = 6.81390115e-07, No Iterations 20
DICPCG:  Solving for p, Initial residual = 0.008049808306, Final residual = 9.168369908e-07, No Iterations 21
diagonal:  Solving for rho, Initial residual = 0, Final residual = 0, No Iterations 0
time step continuity errors : sum local = 3.180045961e-09, global = -2.604558096e-10, cumulative = 1.90232747e-09
smoothSolver:  Solving for Bx, Initial residual = 0, Final residual = 0, No Iterations 0
smoothSolver:  Solving for By, Initial residual = 0, Final residual = 0, No Iterations 0
DICPCG:  Solving for pB, Initial residual = 0, Final residual = 0, No Iterations 0
magnetic flux divergence error = 0
smoothSolver:  Solving for Bx, Initial residual = 0, Final residual = 0, No Iterations 0
smoothSolver:  Solving for By, Initial residual = 0, Final residual = 0, No Iterations 0
DICPCG:  Solving for pB, Initial residual = 0, Final residual = 0, No Iterations 0
magnetic flux divergence error = 0
smoothSolver:  Solving for Bx, Initial residual = 0, Final residual = 0, No Iterations 0
smoothSolver:  Solving for By, Initial residual = 0, Final residual = 0, No Iterations 0
DICPCG:  Solving for pB, Initial residual = 0, Final residual = 0, No Iterations 0
magnetic flux divergence error = 0
ExecutionTime = 0.32 s  ClockTime = 0 s

Courant Number mean: 0.007785769156 max: 0.04710805944
deltaT = 0.005
Time = 0.02479890176

PIMPLE: iteration 1
diagonal:  Solving for rho, Initial residual = 0, Final residual = 0, No Iterations 0
smoothSolver:  Solving for Ux, Initial residual = 0.09761200004, Final residual = 7.351245935e-07, No Iterations 15
smoothSolver:  Solving for Uy, Initial residual = 0.1081513473, Final residual = 5.448797403e-07, No Iterations 15
smoothSolver:  Solving for e, Initial residual = 0.1167739918, Final residual = 8.200030396e-07, No Iterations 28
DICPCG:  Solving for p, Initial residual = 0.09529625987, Final residual = 8.604326236e-07, No Iterations 28
diagonal:  Solving for rho, Initial residual = 0, Final residual = 0, No Iterations 0
time step continuity errors : sum local = 3.164894948e-09, global = 1.748039633e-10, cumulative = 2.077131434e-09
smoothSolver:  Solving for e, Initial residual = 0.06408879798, Final residual = 6.805475664e-07, No Iterations 27
DICPCG:  Solving for p, Initial residual = 0.01482184371, Final residual = 9.373537442e-07, No Iterations 24
diagonal:  Solving for rho, Initial residual = 0, Final residual = 0, No Iterations 0
time step continuity errors : sum local = 3.702225789e-09, global = -2.077889631e-11, cumulative = 2.056352537e-09
smoothSolver:  Solving for e, Initial residual = 0.01157687933, Final residual = 9.88365054e-07, No Iterations 22
DICPCG:  Solving for p, Initial residual = 0.007663061011, Final residual = 7.04876584e-07, No Iterations 23
diagonal:  Solving for rho, Initial residual = 0, Final residual = 0, No Iterations 0
time step continuity errors : sum local = 2.742544581e-09, global = -4.468775859e-10, cumulative = 1.609474951e-09
smoothSolver:  Solving for Bx, Initial residual = 0, Final residual = 0, No Iterations 0
smoothSolver:  Solving for By, Initial residual = 0, Final residual = 0, No Iterations 0
DICPCG:  Solving for pB, Initial residual = 0, Final residual = 0, No Iterations 0
magnetic flux divergence error = 0
smoothSolver:  Solving for Bx, Initial residual = 0, Final residual = 0, No Iterations 0
smoothSolver:  Solving for By, Initial residual = 0, Final residual = 0, No Iterations 0
DICPCG:  Solving for pB, Initial residual = 0, Final residual = 0, No Iterations 0
magnetic flux divergence error = 0
smoothSolver:  Solving for Bx, Initial residual = 0, Final residual = 0, No Iterations 0
smoothSolver:  Solving for By, Initial residual = 0, Final residual = 0, No Iterations 0
DICPCG:  Solving for pB, Initial residual = 0, Final residual = 0, No Iterations 0
magnetic flux divergence error = 0
ExecutionTime = 0.36 s  ClockTime = 0 s

Courant Number mean: 0.01117975101 max: 0.0559881035
deltaT = 0.005
Time = 0.02979890176

PIMPLE: iteration 1
diagonal:  Solving for rho, Initial residual = 0, Final residual = 0, No Iterations 0
smoothSolver:  Solving for Ux, Initial residual = 0.09102366548, Final residual = 6.848655057e-07, No Iterations 15
smoothSolver:  Solving for Uy, Initial residual = 0.08904927425, Final residual = 4.575592047e-07, No Iterations 15
smoothSolver:  Solving for e, Initial residual = 0.112130253, Final residual = 7.895099711e-07, No Iterations 28
DICPCG:  Solving for p, Initial residual = 0.0887687133, Final residual = 9.785285524e-07, No Iterations 26
diagonal:  Solving for rho, Initial residual = 0, Final residual = 0, No Iterations 0
time step continuity errors : sum local = 3.843309309e-09, global = 4.848374909e-11, cumulative = 1.657958701e-09
smoothSolver:  Solving for e, Initial residual = 0.05628425649, Final residual = 9.181607551e-07, No Iterations 26
DICPCG:  Solving for p, Initial residual = 0.01253432224, Final residual = 8.461518005e-07, No Iterations 22
diagonal:  Solving for rho, Initial residual = 0, Final residual = 0, No Iterations 0
time step continuity errors : sum local = 3.433132478e-09, global = -6.153347399e-10, cumulative = 1.042623961e-09
smoothSolver:  Solving for e, Initial residual = 0.008381395571, Final residual = 7.224638724e-07, No Iterations 22
DICPCG:  Solving for p, Initial residual = 0.005351918294, Final residual = 8.25272541e-07, No Iterations 21
diagonal:  Solving for rho, Initial residual = 0, Final residual = 0, No Iterations 0
time step continuity errors : sum local = 3.306418716e-09, global = -6.37562703e-10, cumulative = 4.050612577e-10
smoothSolver:  Solving for Bx, Initial residual = 0, Final residual = 0, No Iterations 0
smoothSolver:  Solving for By, Initial residual = 0, Final residual = 0, No Iterations 0
DICPCG:  Solving for pB, Initial residual = 0, Final residual = 0, No Iterations 0
magnetic flux divergence error = 0
smoothSolver:  Solving for Bx, Initial residual = 0, Final residual = 0, No Iterations 0
smoothSolver:  Solving for By, Initial residual = 0, Final residual = 0, No Iterations 0
DICPCG:  Solving for pB, Initial residual = 0, Final residual = 0, No Iterations 0
magnetic flux divergence error = 0
smoothSolver:  Solving for Bx, Initial residual = 0, Final residual = 0, No Iterations 0
smoothSolver:  Solving for By, Initial residual = 0, Final residual = 0, No Iterations 0
DICPCG:  Solving for pB, Initial residual = 0, Final residual = 0, No Iterations 0
magnetic flux divergence error = 0
ExecutionTime = 0.4 s  ClockTime = 0 s

Courant Number mean: 0.01327643493 max: 0.0567687421
deltaT = 0.005
Time = 0.03479890176

PIMPLE: iteration 1
diagonal:  Solving for rho, Initial residual = 0, Final residual = 0, No Iterations 0
smoothSolver:  Solving for Ux, Initial residual = 0.08917850756, Final residual = 6.707325214e-07, No Iterations 15
smoothSolver:  Solving for Uy, Initial residual = 0.07660477317, Final residual = 8.959233209e-07, No Iterations 14
smoothSolver:  Solving for e, Initial residual = 0.1140853142, Final residual = 8.05005618e-07, No Iterations 28
DICPCG:  Solving for p, Initial residual = 0.08642856587, Final residual = 5.260885862e-07, No Iterations 27
diagonal:  Solving for rho, Initial residual = 0, Final residual = 0, No Iterations 0
time step continuity errors : sum local = 2.100760011e-09, global = -2.629649951e-11, cumulative = 3.787647582e-10
smoothSolver:  Solving for e, Initial residual = 0.05260044812, Final residual = 8.62545302e-07, No Iterations 26
DICPCG:  Solving for p, Initial residual = 0.01091780735, Final residual = 8.970380689e-07, No Iterations 22
diagonal:  Solving for rho, Initial residual = 0, Final residual = 0, No Iterations 0
time step continuity errors : sum local = 3.582817074e-09, global = -4.119131393e-10, cumulative = -3.314838113e-11
smoothSolver:  Solving for e, Initial residual = 0.006634217863, Final residual = 8.81962663e-07, No Iterations 21
DICPCG:  Solving for p, Initial residual = 0.004023050299, Final residual = 5.271974969e-07, No Iterations 21
diagonal:  Solving for rho, Initial residual = 0, Final residual = 0, No Iterations 0
time step continuity errors : sum local = 2.084231974e-09, global = -2.31459595e-10, cumulative = -2.646079761e-10
smoothSolver:  Solving for Bx, Initial residual = 0, Final residual = 0, No Iterations 0
smoothSolver:  Solving for By, Initial residual = 0, Final residual = 0, No Iterations 0
DICPCG:  Solving for pB, Initial residual = 0, Final residual = 0, No Iterations 0
magnetic flux divergence error = 0
smoothSolver:  Solving for Bx, Initial residual = 0, Final residual = 0, No Iterations 0
smoothSolver:  Solving for By, Initial residual = 0, Final residual = 0, No Iterations 0
DICPCG:  Solving for pB, Initial residual = 0, Final residual = 0, No Iterations 0
magnetic flux divergence error = 0
smoothSolver:  Solving for Bx, Initial residual = 0, Final residual = 0, No Iterations 0
smoothSolver:  Solving for By, Initial residual = 0, Final residual = 0, No Iterations 0
DICPCG:  Solving for pB, Initial residual = 0, Final residual = 0, No Iterations 0
magnetic flux divergence error = 0
ExecutionTime = 0.44 s  ClockTime = 0 s

Courant Number mean: 0.01534963268 max: 0.05728379786
deltaT = 0.005
Time = 0.03979890176

PIMPLE: iteration 1
diagonal:  Solving for rho, Initial residual = 0, Final residual = 0, No Iterations 0
smoothSolver:  Solving for Ux, Initial residual = 0.09051597646, Final residual = 6.814444101e-07, No Iterations 15
smoothSolver:  Solving for Uy, Initial residual = 0.066409421, Final residual = 7.901851313e-07, No Iterations 14
smoothSolver:  Solving for e, Initial residual = 0.1206969221, Final residual = 8.527852205e-07, No Iterations 28
DICPCG:  Solving for p, Initial residual = 0.08473028169, Final residual = 8.611972244e-07, No Iterations 26
diagonal:  Solving for rho, Initial residual = 0, Final residual = 0, No Iterations 0
time step continuity errors : sum local = 3.35939386e-09, global = 1.499979846e-10, cumulative = -1.146099915e-10
smoothSolver:  Solving for e, Initial residual = 0.04881215814, Final residual = 8.019441326e-07, No Iterations 26
DICPCG:  Solving for p, Initial residual = 0.009039428969, Final residual = 7.504164269e-07, No Iterations 22
diagonal:  Solving for rho, Initial residual = 0, Final residual = 0, No Iterations 0
time step continuity errors : sum local = 2.852520685e-09, global = -2.772278763e-10, cumulative = -3.918378678e-10
smoothSolver:  Solving for e, Initial residual = 0.005486642157, Final residual = 7.321199016e-07, No Iterations 21
DICPCG:  Solving for p, Initial residual = 0.003108650494, Final residual = 9.766658512e-07, No Iterations 19
diagonal:  Solving for rho, Initial residual = 0, Final residual = 0, No Iterations 0
time step continuity errors : sum local = 3.68777555e-09, global = -1.716987393e-10, cumulative = -5.635366071e-10
smoothSolver:  Solving for Bx, Initial residual = 0, Final residual = 0, No Iterations 0
smoothSolver:  Solving for By, Initial residual = 0, Final residual = 0, No Iterations 0
DICPCG:  Solving for pB, Initial residual = 0, Final residual = 0, No Iterations 0
magnetic flux divergence error = 0
smoothSolver:  Solving for Bx, Initial residual = 0, Final residual = 0, No Iterations 0
smoothSolver:  Solving for By, Initial residual = 0, Final residual = 0, No Iterations 0
DICPCG:  Solving for pB, Initial residual = 0, Final residual = 0, No Iterations 0
magnetic flux divergence error = 0
smoothSolver:  Solving for Bx, Initial residual = 0, Final residual = 0, No Iterations 0
smoothSolver:  Solving for By, Initial residual = 0, Final residual = 0, No Iterations 0
DICPCG:  Solving for pB, Initial residual = 0, Final residual = 0, No Iterations 0
magnetic flux divergence error = 0
ExecutionTime = 0.48 s  ClockTime = 0 s

Courant Number mean: 0.01740308649 max: 0.05763914483
deltaT = 0.005
Time = 0.04479890176

PIMPLE: iteration 1
diagonal:  Solving for rho, Initial residual = 0, Final residual = 0, No Iterations 0
smoothSolver:  Solving for Ux, Initial residual = 0.09450690587, Final residual = 7.118477552e-07, No Iterations 15
smoothSolver:  Solving for Uy, Initial residual = 0.05569776702, Final residual = 6.71241526e-07, No Iterations 14
smoothSolver:  Solving for e, Initial residual = 0.1274514231, Final residual = 9.00532922e-07, No Iterations 28
DICPCG:  Solving for p, Initial residual = 0.07874568996, Final residual = 7.624275391e-07, No Iterations 26
diagonal:  Solving for rho, Initial residual = 0, Final residual = 0, No Iterations 0
time step continuity errors : sum local = 2.828435828e-09, global = 2.76942159e-10, cumulative = -2.865944481e-10
smoothSolver:  Solving for e, Initial residual = 0.04175256159, Final residual = 6.838597795e-07, No Iterations 26
DICPCG:  Solving for p, Initial residual = 0.006815298927, Final residual = 5.658023153e-07, No Iterations 22
diagonal:  Solving for rho, Initial residual = 0, Final residual = 0, No Iterations 0
time step continuity errors : sum local = 2.014662389e-09, global = -1.814806998e-10, cumulative = -4.680751479e-10
smoothSolver:  Solving for e, Initial residual = 0.005967561831, Final residual = 8.072155324e-07, No Iterations 21
DICPCG:  Solving for p, Initial residual = 0.00312783976, Final residual = 8.282228635e-07, No Iterations 19
diagonal:  Solving for rho, Initial residual = 0, Final residual = 0, No Iterations 0
time step continuity errors : sum local = 2.944265363e-09, global = -6.752329893e-11, cumulative = -5.355984469e-10
smoothSolver:  Solving for Bx, Initial residual = 0, Final residual = 0, No Iterations 0
smoothSolver:  Solving for By, Initial residual = 0, Final residual = 0, No Iterations 0
DICPCG:  Solving for pB, Initial residual = 0, Final residual = 0, No Iterations 0
magnetic flux divergence error = 0
smoothSolver:  Solving for Bx, Initial residual = 0, Final residual = 0, No Iterations 0
smoothSolver:  Solving for By, Initial residual = 0, Final residual = 0, No Iterations 0
DICPCG:  Solving for pB, Initial residual = 0, Final residual = 0, No Iterations 0
magnetic flux divergence error = 0
smoothSolver:  Solving for Bx, Initial residual = 0, Final residual = 0, No Iterations 0
smoothSolver:  Solving for By, Initial residual = 0, Final residual = 0, No Iterations 0
DICPCG:  Solving for pB, Initial residual = 0, Final residual = 0, No Iterations 0
magnetic flux divergence error = 0
ExecutionTime = 0.52 s  ClockTime = 1 s

Courant Number mean: 0.01943387036 max: 0.05790032619
deltaT = 0.005
Time = 0.04979890176

PIMPLE: iteration 1
diagonal:  Solving for rho, Initial residual = 0, Final residual = 0, No Iterations 0
smoothSolver:  Solving for Ux, Initial residual = 0.1010475274, Final residual = 7.609000076e-07, No Iterations 15
smoothSolver:  Solving for Uy, Initial residual = 0.0440054759, Final residual = 5.303443687e-07, No Iterations 14
smoothSolver:  Solving for e, Initial residual = 0.1235653422, Final residual = 8.717763858e-07, No Iterations 28
DICPCG:  Solving for p, Initial residual = 0.06308654439, Final residual = 6.781200535e-07, No Iterations 26
diagonal:  Solving for rho, Initial residual = 0, Final residual = 0, No Iterations 0
time step continuity errors : sum local = 2.376875051e-09, global = 2.019429278e-10, cumulative = -3.336555191e-10
smoothSolver:  Solving for e, Initial residual = 0.03834173799, Final residual = 9.629583875e-07, No Iterations 25
DICPCG:  Solving for p, Initial residual = 0.007204159825, Final residual = 9.970870884e-07, No Iterations 21
diagonal:  Solving for rho, Initial residual = 0, Final residual = 0, No Iterations 0
time step continuity errors : sum local = 3.365035332e-09, global = -2.31225353e-10, cumulative = -5.648808721e-10
smoothSolver:  Solving for e, Initial residual = 0.005455206239, Final residual = 7.371449463e-07, No Iterations 21
DICPCG:  Solving for p, Initial residual = 0.002681919634, Final residual = 6.92646517e-07, No Iterations 19
diagonal:  Solving for rho, Initial residual = 0, Final residual = 0, No Iterations 0
time step continuity errors : sum local = 2.345923037e-09, global = -1.850330693e-10, cumulative = -7.499139414e-10
smoothSolver:  Solving for Bx, Initial residual = 0, Final residual = 0, No Iterations 0
smoothSolver:  Solving for By, Initial residual = 0, Final residual = 0, No Iterations 0
DICPCG:  Solving for pB, Initial residual = 0, Final residual = 0, No Iterations 0
magnetic flux divergence error = 0
smoothSolver:  Solving for Bx, Initial residual = 0, Final residual = 0, No Iterations 0
smoothSolver:  Solving for By, Initial residual = 0, Final residual = 0, No Iterations 0
DICPCG:  Solving for pB, Initial residual = 0, Final residual = 0, No Iterations 0
magnetic flux divergence error = 0
smoothSolver:  Solving for Bx, Initial residual = 0, Final residual = 0, No Iterations 0
smoothSolver:  Solving for By, Initial residual = 0, Final residual = 0, No Iterations 0
DICPCG:  Solving for pB, Initial residual = 0, Final residual = 0, No Iterations 0
magnetic flux divergence error = 0
ExecutionTime = 0.56 s  ClockTime = 1 s

Courant Number mean: 0.02143486 max: 0.05810304591
deltaT = 0.005
Time = 0.05479890176

PIMPLE: iteration 1
diagonal:  Solving for rho, Initial residual = 0, Final residual = 0, No Iterations 0
smoothSolver:  Solving for Ux, Initial residual = 0.1076289453, Final residual = 8.127142455e-07, No Iterations 15
smoothSolver:  Solving for Uy, Initial residual = 0.0361852739, Final residual = 9.267258465e-07, No Iterations 13
smoothSolver:  Solving for e, Initial residual = 0.09724295504, Final residual = 6.837109682e-07, No Iterations 28
DICPCG:  Solving for p, Initial residual = 0.03625957592, Final residual = 8.491876155e-07, No Iterations 24
diagonal:  Solving for rho, Initial residual = 0, Final residual = 0, No Iterations 0
time step continuity errors : sum local = 2.860408368e-09, global = 1.658044639e-10, cumulative = -5.841094775e-10
smoothSolver:  Solving for e, Initial residual = 0.05443169846, Final residual = 9.008370782e-07, No Iterations 26
DICPCG:  Solving for p, Initial residual = 0.009053643154, Final residual = 9.037140149e-07, No Iterations 21
diagonal:  Solving for rho, Initial residual = 0, Final residual = 0, No Iterations 0
time step continuity errors : sum local = 2.993125969e-09, global = -3.686334318e-10, cumulative = -9.527429094e-10
smoothSolver:  Solving for e, Initial residual = 0.002857650952, Final residual = 8.911539256e-07, No Iterations 19
DICPCG:  Solving for p, Initial residual = 0.001381837186, Final residual = 7.574010466e-07, No Iterations 18
diagonal:  Solving for rho, Initial residual = 0, Final residual = 0, No Iterations 0
time step continuity errors : sum local = 2.524458111e-09, global = -2.382310916e-10, cumulative = -1.190974001e-09
smoothSolver:  Solving for Bx, Initial residual = 0, Final residual = 0, No Iterations 0
smoothSolver:  Solving for By, Initial residual = 0, Final residual = 0, No Iterations 0
DICPCG:  Solving for pB, Initial residual = 0, Final residual = 0, No Iterations 0
magnetic flux divergence error = 0
smoothSolver:  Solving for Bx, Initial residual = 0, Final residual = 0, No Iterations 0
smoothSolver:  Solving for By, Initial residual = 0, Final residual = 0, No Iterations 0
DICPCG:  Solving for pB, Initial residual = 0, Final residual = 0, No Iterations 0
magnetic flux divergence error = 0
smoothSolver:  Solving for Bx, Initial residual = 0, Final residual = 0, No Iterations 0
smoothSolver:  Solving for By, Initial residual = 0, Final residual = 0, No Iterations 0
DICPCG:  Solving for pB, Initial residual = 0, Final residual = 0, No Iterations 0
magnetic flux divergence error = 0
ExecutionTime = 0.59 s  ClockTime = 1 s

Courant Number mean: 0.02340167471 max: 0.05826485363
deltaT = 0.005
Time = 0.05979890176

PIMPLE: iteration 1
diagonal:  Solving for rho, Initial residual = 0, Final residual = 0, No Iterations 0
smoothSolver:  Solving for Ux, Initial residual = 0.1036042069, Final residual = 7.944771926e-07, No Iterations 15
smoothSolver:  Solving for Uy, Initial residual = 0.04469034775, Final residual = 5.337584762e-07, No Iterations 14
smoothSolver:  Solving for e, Initial residual = 0.04724923748, Final residual = 7.656729612e-07, No Iterations 26
DICPCG:  Solving for p, Initial residual = 0.008824107974, Final residual = 8.698522434e-07, No Iterations 22
diagonal:  Solving for rho, Initial residual = 0, Final residual = 0, No Iterations 0
time step continuity errors : sum local = 2.916598232e-09, global = 5.187712998e-10, cumulative = -6.722027012e-10
smoothSolver:  Solving for e, Initial residual = 0.05769850401, Final residual = 9.563699573e-07, No Iterations 26
DICPCG:  Solving for p, Initial residual = 0.008874365801, Final residual = 7.672494793e-07, No Iterations 20
diagonal:  Solving for rho, Initial residual = 0, Final residual = 0, No Iterations 0
time step continuity errors : sum local = 2.593803096e-09, global = -3.041052318e-10, cumulative = -9.763079329e-10
smoothSolver:  Solving for e, Initial residual = 0.001378677657, Final residual = 9.851347667e-07, No Iterations 17
DICPCG:  Solving for p, Initial residual = 0.0006732463404, Final residual = 8.040581143e-07, No Iterations 16
diagonal:  Solving for rho, Initial residual = 0, Final residual = 0, No Iterations 0
time step continuity errors : sum local = 2.731805446e-09, global = 5.762450259e-11, cumulative = -9.186834303e-10
smoothSolver:  Solving for Bx, Initial residual = 0, Final residual = 0, No Iterations 0
smoothSolver:  Solving for By, Initial residual = 0, Final residual = 0, No Iterations 0
DICPCG:  Solving for pB, Initial residual = 0, Final residual = 0, No Iterations 0
magnetic flux divergence error = 0
smoothSolver:  Solving for Bx, Initial residual = 0, Final residual = 0, No Iterations 0
smoothSolver:  Solving for By, Initial residual = 0, Final residual = 0, No Iterations 0
DICPCG:  Solving for pB, Initial residual = 0, Final residual = 0, No Iterations 0
magnetic flux divergence error = 0
smoothSolver:  Solving for Bx, Initial residual = 0, Final residual = 0, No Iterations 0
smoothSolver:  Solving for By, Initial residual = 0, Final residual = 0, No Iterations 0
DICPCG:  Solving for pB, Initial residual = 0, Final residual = 0, No Iterations 0
magnetic flux divergence error = 0
ExecutionTime = 0.63 s  ClockTime = 1 s

Courant Number mean: 0.02533695512 max: 0.05839524849
deltaT = 0.005
Time = 0.06479890176

PIMPLE: iteration 1
diagonal:  Solving for rho, Initial residual = 0, Final residual = 0, No Iterations 0
smoothSolver:  Solving for Ux, Initial residual = 0.09068735235, Final residual = 7.168526846e-07, No Iterations 15
smoothSolver:  Solving for Uy, Initial residual = 0.05685874967, Final residual = 7.057672267e-07, No Iterations 14
smoothSolver:  Solving for e, Initial residual = 0.02435794644, Final residual = 9.0003366e-07, No Iterations 24
DICPCG:  Solving for p, Initial residual = 0.03121805037, Final residual = 8.263879252e-07, No Iterations 23
diagonal:  Solving for rho, Initial residual = 0, Final residual = 0, No Iterations 0
time step continuity errors : sum local = 2.859130494e-09, global = -3.167881424e-10, cumulative = -1.235471573e-09
smoothSolver:  Solving for e, Initial residual = 0.04700405823, Final residual = 7.796917285e-07, No Iterations 26
DICPCG:  Solving for p, Initial residual = 0.00710923477, Final residual = 5.776192403e-07, No Iterations 20
diagonal:  Solving for rho, Initial residual = 0, Final residual = 0, No Iterations 0
time step continuity errors : sum local = 2.042580831e-09, global = -1.612927427e-10, cumulative = -1.396764315e-09
smoothSolver:  Solving for e, Initial residual = 0.003034031898, Final residual = 9.674675835e-07, No Iterations 19
DICPCG:  Solving for p, Initial residual = 0.0015296795, Final residual = 9.145863882e-07, No Iterations 16
diagonal:  Solving for rho, Initial residual = 0, Final residual = 0, No Iterations 0
time step continuity errors : sum local = 3.237992139e-09, global = 2.654521798e-10, cumulative = -1.131312136e-09
smoothSolver:  Solving for Bx, Initial residual = 0, Final residual = 0, No Iterations 0
smoothSolver:  Solving for By, Initial residual = 0, Final residual = 0, No Iterations 0
DICPCG:  Solving for pB, Initial residual = 0, Final residual = 0, No Iterations 0
magnetic flux divergence error = 0
smoothSolver:  Solving for Bx, Initial residual = 0, Final residual = 0, No Iterations 0
smoothSolver:  Solving for By, Initial residual = 0, Final residual = 0, No Iterations 0
DICPCG:  Solving for pB, Initial residual = 0, Final residual = 0, No Iterations 0
magnetic flux divergence error = 0
smoothSolver:  Solving for Bx, Initial residual = 0, Final residual = 0, No Iterations 0
smoothSolver:  Solving for By, Initial residual = 0, Final residual = 0, No Iterations 0
DICPCG:  Solving for pB, Initial residual = 0, Final residual = 0, No Iterations 0
magnetic flux divergence error = 0
ExecutionTime = 0.67 s  ClockTime = 1 s

Courant Number mean: 0.02725945401 max: 0.05850200469
deltaT = 0.005
Time = 0.06979890176

PIMPLE: iteration 1
diagonal:  Solving for rho, Initial residual = 0, Final residual = 0, No Iterations 0
smoothSolver:  Solving for Ux, Initial residual = 0.07914418044, Final residual = 6.39759109e-07, No Iterations 15
smoothSolver:  Solving for Uy, Initial residual = 0.06228695477, Final residual = 7.965738757e-07, No Iterations 14
smoothSolver:  Solving for e, Initial residual = 0.05677698916, Final residual = 9.309775534e-07, No Iterations 26
DICPCG:  Solving for p, Initial residual = 0.0467891054, Final residual = 5.755475496e-07, No Iterations 24
diagonal:  Solving for rho, Initial residual = 0, Final residual = 0, No Iterations 0
time step continuity errors : sum local = 2.087452221e-09, global = -1.555941866e-10, cumulative = -1.286906322e-09
smoothSolver:  Solving for e, Initial residual = 0.03217789095, Final residual = 8.137489228e-07, No Iterations 25
DICPCG:  Solving for p, Initial residual = 0.004892140203, Final residual = 9.843510184e-07, No Iterations 18
diagonal:  Solving for rho, Initial residual = 0, Final residual = 0, No Iterations 0
time step continuity errors : sum local = 3.64210093e-09, global = -1.376097062e-10, cumulative = -1.424516028e-09
smoothSolver:  Solving for e, Initial residual = 0.003113836536, Final residual = 9.962116485e-07, No Iterations 19
DICPCG:  Solving for p, Initial residual = 0.001664526379, Final residual = 9.829071903e-07, No Iterations 17
diagonal:  Solving for rho, Initial residual = 0, Final residual = 0, No Iterations 0
time step continuity errors : sum local = 3.628198734e-09, global = 3.119313129e-10, cumulative = -1.112584716e-09
smoothSolver:  Solving for Bx, Initial residual = 0, Final residual = 0, No Iterations 0
smoothSolver:  Solving for By, Initial residual = 0, Final residual = 0, No Iterations 0
DICPCG:  Solving for pB, Initial residual = 0, Final residual = 0, No Iterations 0
magnetic flux divergence error = 0
smoothSolver:  Solving for Bx, Initial residual = 0, Final residual = 0, No Iterations 0
smoothSolver:  Solving for By, Initial residual = 0, Final residual = 0, No Iterations 0
DICPCG:  Solving for pB, Initial residual = 0, Final residual = 0, No Iterations 0
magnetic flux divergence error = 0
smoothSolver:  Solving for Bx, Initial residual = 0, Final residual = 0, No Iterations 0
smoothSolver:  Solving for By, Initial residual = 0, Final residual = 0, No Iterations 0
DICPCG:  Solving for pB, Initial residual = 0, Final residual = 0, No Iterations 0
magnetic flux divergence error = 0
ExecutionTime = 0.7 s  ClockTime = 1 s

Courant Number mean: 0.02919675733 max: 0.05859466557
deltaT = 0.005
Time = 0.07479890176

PIMPLE: iteration 1
diagonal:  Solving for rho, Initial residual = 0, Final residual = 0, No Iterations 0
smoothSolver:  Solving for Ux, Initial residual = 0.07033603166, Final residual = 5.768356783e-07, No Iterations 15
smoothSolver:  Solving for Uy, Initial residual = 0.05958898171, Final residual = 7.787149614e-07, No Iterations 14
smoothSolver:  Solving for e, Initial residual = 0.07492535628, Final residual = 8.112018544e-07, No Iterations 27
DICPCG:  Solving for p, Initial residual = 0.05561382628, Final residual = 8.589693542e-07, No Iterations 22
diagonal:  Solving for rho, Initial residual = 0, Final residual = 0, No Iterations 0
time step continuity errors : sum local = 3.241673853e-09, global = -1.492468789e-10, cumulative = -1.261831594e-09
smoothSolver:  Solving for e, Initial residual = 0.02063051529, Final residual = 7.892799963e-07, No Iterations 24
DICPCG:  Solving for p, Initial residual = 0.004023325049, Final residual = 6.823775245e-07, No Iterations 20
diagonal:  Solving for rho, Initial residual = 0, Final residual = 0, No Iterations 0
time step continuity errors : sum local = 2.593032043e-09, global = -8.75129772e-11, cumulative = -1.349344572e-09
smoothSolver:  Solving for e, Initial residual = 0.002530635554, Final residual = 8.053503726e-07, No Iterations 19
DICPCG:  Solving for p, Initial residual = 0.001416218843, Final residual = 6.444249483e-07, No Iterations 16
diagonal:  Solving for rho, Initial residual = 0, Final residual = 0, No Iterations 0
time step continuity errors : sum local = 2.437451516e-09, global = 2.74424879e-10, cumulative = -1.074919693e-09
smoothSolver:  Solving for Bx, Initial residual = 0, Final residual = 0, No Iterations 0
smoothSolver:  Solving for By, Initial residual = 0, Final residual = 0, No Iterations 0
DICPCG:  Solving for pB, Initial residual = 0, Final residual = 0, No Iterations 0
magnetic flux divergence error = 0
smoothSolver:  Solving for Bx, Initial residual = 0, Final residual = 0, No Iterations 0
smoothSolver:  Solving for By, Initial residual = 0, Final residual = 0, No Iterations 0
DICPCG:  Solving for pB, Initial residual = 0, Final residual = 0, No Iterations 0
magnetic flux divergence error = 0
smoothSolver:  Solving for Bx, Initial residual = 0, Final residual = 0, No Iterations 0
smoothSolver:  Solving for By, Initial residual = 0, Final residual = 0, No Iterations 0
DICPCG:  Solving for pB, Initial residual = 0, Final residual = 0, No Iterations 0
magnetic flux divergence error = 0
ExecutionTime = 0.74 s  ClockTime = 1 s

Courant Number mean: 0.03114098414 max: 0.05868656407
deltaT = 0.005
Time = 0.07979890176

PIMPLE: iteration 1
diagonal:  Solving for rho, Initial residual = 0, Final residual = 0, No Iterations 0
smoothSolver:  Solving for Ux, Initial residual = 0.06348785499, Final residual = 5.235866658e-07, No Iterations 15
smoothSolver:  Solving for Uy, Initial residual = 0.05298195503, Final residual = 6.956209838e-07, No Iterations 14
smoothSolver:  Solving for e, Initial residual = 0.08613526574, Final residual = 9.368361906e-07, No Iterations 27
DICPCG:  Solving for p, Initial residual = 0.06177171077, Final residual = 8.7964876e-07, No Iterations 22
diagonal:  Solving for rho, Initial residual = 0, Final residual = 0, No Iterations 0
time step continuity errors : sum local = 3.376258253e-09, global = -1.585511463e-10, cumulative = -1.233470839e-09
smoothSolver:  Solving for e, Initial residual = 0.02303595627, Final residual = 8.769042393e-07, No Iterations 24
DICPCG:  Solving for p, Initial residual = 0.004813482064, Final residual = 8.262485814e-07, No Iterations 20
diagonal:  Solving for rho, Initial residual = 0, Final residual = 0, No Iterations 0
time step continuity errors : sum local = 3.132892196e-09, global = -2.774817815e-10, cumulative = -1.51095262e-09
smoothSolver:  Solving for e, Initial residual = 0.001928961237, Final residual = 9.210617512e-07, No Iterations 18
DICPCG:  Solving for p, Initial residual = 0.001109164718, Final residual = 7.926166594e-07, No Iterations 16
diagonal:  Solving for rho, Initial residual = 0, Final residual = 0, No Iterations 0
time step continuity errors : sum local = 2.988078479e-09, global = 4.656474165e-10, cumulative = -1.045305204e-09
smoothSolver:  Solving for Bx, Initial residual = 0, Final residual = 0, No Iterations 0
smoothSolver:  Solving for By, Initial residual = 0, Final residual = 0, No Iterations 0
DICPCG:  Solving for pB, Initial residual = 0, Final residual = 0, No Iterations 0
magnetic flux divergence error = 0
smoothSolver:  Solving for Bx, Initial residual = 0, Final residual = 0, No Iterations 0
smoothSolver:  Solving for By, Initial residual = 0, Final residual = 0, No Iterations 0
DICPCG:  Solving for pB, Initial residual = 0, Final residual = 0, No Iterations 0
magnetic flux divergence error = 0
smoothSolver:  Solving for Bx, Initial residual = 0, Final residual = 0, No Iterations 0
smoothSolver:  Solving for By, Initial residual = 0, Final residual = 0, No Iterations 0
DICPCG:  Solving for pB, Initial residual = 0, Final residual = 0, No Iterations 0
magnetic flux divergence error = 0
ExecutionTime = 0.78 s  ClockTime = 1 s

Courant Number mean: 0.0330527869 max: 0.05879535434
deltaT = 0.005
Time = 0.08479890176

PIMPLE: iteration 1
diagonal:  Solving for rho, Initial residual = 0, Final residual = 0, No Iterations 0
smoothSolver:  Solving for Ux, Initial residual = 0.05784152387, Final residual = 4.749981811e-07, No Iterations 15
smoothSolver:  Solving for Uy, Initial residual = 0.04626189588, Final residual = 5.947749596e-07, No Iterations 14
smoothSolver:  Solving for e, Initial residual = 0.09472642544, Final residual = 6.737957144e-07, No Iterations 28
DICPCG:  Solving for p, Initial residual = 0.06690099229, Final residual = 7.498924166e-07, No Iterations 25
diagonal:  Solving for rho, Initial residual = 0, Final residual = 0, No Iterations 0
time step continuity errors : sum local = 2.838726177e-09, global = 6.607255351e-11, cumulative = -9.792326505e-10
smoothSolver:  Solving for e, Initial residual = 0.02626045589, Final residual = 9.965305425e-07, No Iterations 24
DICPCG:  Solving for p, Initial residual = 0.005387344952, Final residual = 8.848405703e-07, No Iterations 20
diagonal:  Solving for rho, Initial residual = 0, Final residual = 0, No Iterations 0
time step continuity errors : sum local = 3.235466666e-09, global = -4.505000101e-10, cumulative = -1.429732661e-09
smoothSolver:  Solving for e, Initial residual = 0.001818615713, Final residual = 8.569704474e-07, No Iterations 18
DICPCG:  Solving for p, Initial residual = 0.001026919407, Final residual = 7.207230665e-07, No Iterations 17
diagonal:  Solving for rho, Initial residual = 0, Final residual = 0, No Iterations 0
time step continuity errors : sum local = 2.619185699e-09, global = 4.15179087e-10, cumulative = -1.014553574e-09
smoothSolver:  Solving for Bx, Initial residual = 0, Final residual = 0, No Iterations 0
smoothSolver:  Solving for By, Initial residual = 0, Final residual = 0, No Iterations 0
DICPCG:  Solving for pB, Initial residual = 0, Final residual = 0, No Iterations 0
magnetic flux divergence error = 0
smoothSolver:  Solving for Bx, Initial residual = 0, Final residual = 0, No Iterations 0
smoothSolver:  Solving for By, Initial residual = 0, Final residual = 0, No Iterations 0
DICPCG:  Solving for pB, Initial residual = 0, Final residual = 0, No Iterations 0
magnetic flux divergence error = 0
smoothSolver:  Solving for Bx, Initial residual = 0, Final residual = 0, No Iterations 0
smoothSolver:  Solving for By, Initial residual = 0, Final residual = 0, No Iterations 0
DICPCG:  Solving for pB, Initial residual = 0, Final residual = 0, No Iterations 0
magnetic flux divergence error = 0
ExecutionTime = 0.82 s  ClockTime = 1 s

Courant Number mean: 0.0348966249 max: 0.05894023633
deltaT = 0.005
Time = 0.08979890176

PIMPLE: iteration 1
diagonal:  Solving for rho, Initial residual = 0, Final residual = 0, No Iterations 0
smoothSolver:  Solving for Ux, Initial residual = 0.05225005283, Final residual = 9.272757254e-07, No Iterations 14
smoothSolver:  Solving for Uy, Initial residual = 0.04131151014, Final residual = 5.105566064e-07, No Iterations 14
smoothSolver:  Solving for e, Initial residual = 0.1036876011, Final residual = 7.3493423e-07, No Iterations 28
DICPCG:  Solving for p, Initial residual = 0.07290208696, Final residual = 9.914614422e-07, No Iterations 25
diagonal:  Solving for rho, Initial residual = 0, Final residual = 0, No Iterations 0
time step continuity errors : sum local = 3.573006483e-09, global = 5.07769858e-11, cumulative = -9.637765879e-10
smoothSolver:  Solving for e, Initial residual = 0.02885014414, Final residual = 7.122490185e-07, No Iterations 25
DICPCG:  Solving for p, Initial residual = 0.005815580946, Final residual = 7.599864814e-07, No Iterations 21
diagonal:  Solving for rho, Initial residual = 0, Final residual = 0, No Iterations 0
time step continuity errors : sum local = 2.578927951e-09, global = -3.764025743e-10, cumulative = -1.340179162e-09
smoothSolver:  Solving for e, Initial residual = 0.001817078315, Final residual = 8.531428945e-07, No Iterations 18
DICPCG:  Solving for p, Initial residual = 0.001031597702, Final residual = 7.862939616e-07, No Iterations 17
diagonal:  Solving for rho, Initial residual = 0, Final residual = 0, No Iterations 0
time step continuity errors : sum local = 2.652005053e-09, global = 3.210017823e-10, cumulative = -1.01917738e-09
smoothSolver:  Solving for Bx, Initial residual = 0, Final residual = 0, No Iterations 0
smoothSolver:  Solving for By, Initial residual = 0, Final residual = 0, No Iterations 0
DICPCG:  Solving for pB, Initial residual = 0, Final residual = 0, No Iterations 0
magnetic flux divergence error = 0
smoothSolver:  Solving for Bx, Initial residual = 0, Final residual = 0, No Iterations 0
smoothSolver:  Solving for By, Initial residual = 0, Final residual = 0, No Iterations 0
DICPCG:  Solving for pB, Initial residual = 0, Final residual = 0, No Iterations 0
magnetic flux divergence error = 0
smoothSolver:  Solving for Bx, Initial residual = 0, Final residual = 0, No Iterations 0
smoothSolver:  Solving for By, Initial residual = 0, Final residual = 0, No Iterations 0
DICPCG:  Solving for pB, Initial residual = 0, Final residual = 0, No Iterations 0
magnetic flux divergence error = 0
ExecutionTime = 0.86 s  ClockTime = 1 s

Courant Number mean: 0.03662332324 max: 0.05913509406
deltaT = 0.005
Time = 0.09479890176

PIMPLE: iteration 1
diagonal:  Solving for rho, Initial residual = 0, Final residual = 0, No Iterations 0
smoothSolver:  Solving for Ux, Initial residual = 0.04589546534, Final residual = 8.087470557e-07, No Iterations 14
smoothSolver:  Solving for Uy, Initial residual = 0.03781954666, Final residual = 4.628363138e-07, No Iterations 14
smoothSolver:  Solving for e, Initial residual = 0.116367104, Final residual = 8.207875416e-07, No Iterations 28
DICPCG:  Solving for p, Initial residual = 0.08159662385, Final residual = 8.331715847e-07, No Iterations 26
diagonal:  Solving for rho, Initial residual = 0, Final residual = 0, No Iterations 0
time step continuity errors : sum local = 2.746510416e-09, global = -1.445024723e-10, cumulative = -1.163679852e-09
smoothSolver:  Solving for e, Initial residual = 0.03147312532, Final residual = 7.711707939e-07, No Iterations 25
DICPCG:  Solving for p, Initial residual = 0.006184487997, Final residual = 8.964356882e-07, No Iterations 21
diagonal:  Solving for rho, Initial residual = 0, Final residual = 0, No Iterations 0
time step continuity errors : sum local = 2.699803824e-09, global = -2.705575283e-10, cumulative = -1.43423738e-09
smoothSolver:  Solving for e, Initial residual = 0.001631346062, Final residual = 7.672115403e-07, No Iterations 18
DICPCG:  Solving for p, Initial residual = 0.000923176565, Final residual = 7.861882846e-07, No Iterations 17
diagonal:  Solving for rho, Initial residual = 0, Final residual = 0, No Iterations 0
time step continuity errors : sum local = 2.354203527e-09, global = 3.976125693e-10, cumulative = -1.036624811e-09
smoothSolver:  Solving for Bx, Initial residual = 0, Final residual = 0, No Iterations 0
smoothSolver:  Solving for By, Initial residual = 0, Final residual = 0, No Iterations 0
DICPCG:  Solving for pB, Initial residual = 0, Final residual = 0, No Iterations 0
magnetic flux divergence error = 0
smoothSolver:  Solving for Bx, Initial residual = 0, Final residual = 0, No Iterations 0
smoothSolver:  Solving for By, Initial residual = 0, Final residual = 0, No Iterations 0
DICPCG:  Solving for pB, Initial residual = 0, Final residual = 0, No Iterations 0
magnetic flux divergence error = 0
smoothSolver:  Solving for Bx, Initial residual = 0, Final residual = 0, No Iterations 0
smoothSolver:  Solving for By, Initial residual = 0, Final residual = 0, No Iterations 0
DICPCG:  Solving for pB, Initial residual = 0, Final residual = 0, No Iterations 0
magnetic flux divergence error = 0
ExecutionTime = 0.9 s  ClockTime = 1 s

Courant Number mean: 0.03816535433 max: 0.05937984727
deltaT = 0.005
Time = 0.09979890176

PIMPLE: iteration 1
diagonal:  Solving for rho, Initial residual = 0, Final residual = 0, No Iterations 0
smoothSolver:  Solving for Ux, Initial residual = 0.03843094116, Final residual = 6.733151007e-07, No Iterations 14
smoothSolver:  Solving for Uy, Initial residual = 0.03470232617, Final residual = 9.449374937e-07, No Iterations 13
smoothSolver:  Solving for e, Initial residual = 0.1364831649, Final residual = 9.576499982e-07, No Iterations 28
DICPCG:  Solving for p, Initial residual = 0.09513171307, Final residual = 9.922737327e-07, No Iterations 27
diagonal:  Solving for rho, Initial residual = 0, Final residual = 0, No Iterations 0
time step continuity errors : sum local = 2.854532166e-09, global = -1.362189417e-10, cumulative = -1.172843753e-09
smoothSolver:  Solving for e, Initial residual = 0.03396039517, Final residual = 8.263532846e-07, No Iterations 25
DICPCG:  Solving for p, Initial residual = 0.006333847672, Final residual = 9.906920144e-07, No Iterations 21
diagonal:  Solving for rho, Initial residual = 0, Final residual = 0, No Iterations 0
time step continuity errors : sum local = 2.507854578e-09, global = -9.795786721e-11, cumulative = -1.27080162e-09
smoothSolver:  Solving for e, Initial residual = 0.001695159755, Final residual = 7.832666308e-07, No Iterations 18
DICPCG:  Solving for p, Initial residual = 0.0009194368601, Final residual = 7.814270416e-07, No Iterations 16
diagonal:  Solving for rho, Initial residual = 0, Final residual = 0, No Iterations 0
time step continuity errors : sum local = 1.96829408e-09, global = 4.262749226e-10, cumulative = -8.445266976e-10
smoothSolver:  Solving for Bx, Initial residual = 0, Final residual = 0, No Iterations 0
smoothSolver:  Solving for By, Initial residual = 0, Final residual = 0, No Iterations 0
DICPCG:  Solving for pB, Initial residual = 0, Final residual = 0, No Iterations 0
magnetic flux divergence error = 0
smoothSolver:  Solving for Bx, Initial residual = 0, Final residual = 0, No Iterations 0
smoothSolver:  Solving for By, Initial residual = 0, Final residual = 0, No Iterations 0
DICPCG:  Solving for pB, Initial residual = 0, Final residual = 0, No Iterations 0
magnetic flux divergence error = 0
smoothSolver:  Solving for Bx, Initial residual = 0, Final residual = 0, No Iterations 0
smoothSolver:  Solving for By, Initial residual = 0, Final residual = 0, No Iterations 0
DICPCG:  Solving for pB, Initial residual = 0, Final residual = 0, No Iterations 0
magnetic flux divergence error = 0
ExecutionTime = 0.94 s  ClockTime = 1 s

Courant Number mean: 0.03943879765 max: 0.05965517921
deltaT = 0.005
Time = 0.1047989018

PIMPLE: iteration 1
diagonal:  Solving for rho, Initial residual = 0, Final residual = 0, No Iterations 0
smoothSolver:  Solving for Ux, Initial residual = 0.02986096023, Final residual = 5.186085115e-07, No Iterations 14
smoothSolver:  Solving for Uy, Initial residual = 0.03131519434, Final residual = 8.599551399e-07, No Iterations 13
smoothSolver:  Solving for e, Initial residual = 0.169624486, Final residual = 7.763126741e-07, No Iterations 29
DICPCG:  Solving for p, Initial residual = 0.1170913652, Final residual = 7.345908712e-07, No Iterations 29
diagonal:  Solving for rho, Initial residual = 0, Final residual = 0, No Iterations 0
time step continuity errors : sum local = 1.740442988e-09, global = -1.197054949e-10, cumulative = -9.642321925e-10
smoothSolver:  Solving for e, Initial residual = 0.0346551822, Final residual = 8.384168511e-07, No Iterations 25
DICPCG:  Solving for p, Initial residual = 0.00589111273, Final residual = 5.726370254e-07, No Iterations 22
diagonal:  Solving for rho, Initial residual = 0, Final residual = 0, No Iterations 0
time step continuity errors : sum local = 1.134796037e-09, global = -1.159683106e-11, cumulative = -9.758290236e-10
smoothSolver:  Solving for e, Initial residual = 0.002398914589, Final residual = 7.444479504e-07, No Iterations 19
DICPCG:  Solving for p, Initial residual = 0.001309170826, Final residual = 7.776971608e-07, No Iterations 16
diagonal:  Solving for rho, Initial residual = 0, Final residual = 0, No Iterations 0
time step continuity errors : sum local = 1.535547461e-09, global = 6.974402954e-11, cumulative = -9.06084994e-10
smoothSolver:  Solving for Bx, Initial residual = 0, Final residual = 0, No Iterations 0
smoothSolver:  Solving for By, Initial residual = 0, Final residual = 0, No Iterations 0
DICPCG:  Solving for pB, Initial residual = 0, Final residual = 0, No Iterations 0
magnetic flux divergence error = 0
smoothSolver:  Solving for Bx, Initial residual = 0, Final residual = 0, No Iterations 0
smoothSolver:  Solving for By, Initial residual = 0, Final residual = 0, No Iterations 0
DICPCG:  Solving for pB, Initial residual = 0, Final residual = 0, No Iterations 0
magnetic flux divergence error = 0
smoothSolver:  Solving for Bx, Initial residual = 0, Final residual = 0, No Iterations 0
smoothSolver:  Solving for By, Initial residual = 0, Final residual = 0, No Iterations 0
DICPCG:  Solving for pB, Initial residual = 0, Final residual = 0, No Iterations 0
magnetic flux divergence error = 0
ExecutionTime = 0.98 s  ClockTime = 1 s

Courant Number mean: 0.04037178292 max: 0.05992375917
deltaT = 0.005
Time = 0.1097989018

PIMPLE: iteration 1
diagonal:  Solving for rho, Initial residual = 0, Final residual = 0, No Iterations 0
smoothSolver:  Solving for Ux, Initial residual = 0.02087919037, Final residual = 7.639021662e-07, No Iterations 13
smoothSolver:  Solving for Uy, Initial residual = 0.02708130436, Final residual = 7.573821308e-07, No Iterations 13
smoothSolver:  Solving for e, Initial residual = 0.2271770271, Final residual = 6.803475822e-07, No Iterations 30
DICPCG:  Solving for p, Initial residual = 0.1550749365, Final residual = 6.692481497e-07, No Iterations 30
diagonal:  Solving for rho, Initial residual = 0, Final residual = 0, No Iterations 0
time step continuity errors : sum local = 1.210128795e-09, global = -1.151952363e-10, cumulative = -1.02128023e-09
smoothSolver:  Solving for e, Initial residual = 0.03038494373, Final residual = 7.305928103e-07, No Iterations 25
DICPCG:  Solving for p, Initial residual = 0.004258841947, Final residual = 8.879551437e-07, No Iterations 21
diagonal:  Solving for rho, Initial residual = 0, Final residual = 0, No Iterations 0
time step continuity errors : sum local = 1.243674759e-09, global = 1.238772455e-13, cumulative = -1.021156353e-09
smoothSolver:  Solving for e, Initial residual = 0.003812416906, Final residual = 7.827108158e-07, No Iterations 20
DICPCG:  Solving for p, Initial residual = 0.002153007476, Final residual = 7.896248394e-07, No Iterations 18
diagonal:  Solving for rho, Initial residual = 0, Final residual = 0, No Iterations 0
time step continuity errors : sum local = 1.104504145e-09, global = -3.22388537e-11, cumulative = -1.053395207e-09
smoothSolver:  Solving for Bx, Initial residual = 0, Final residual = 0, No Iterations 0
smoothSolver:  Solving for By, Initial residual = 0, Final residual = 0, No Iterations 0
DICPCG:  Solving for pB, Initial residual = 0, Final residual = 0, No Iterations 0
magnetic flux divergence error = 0
smoothSolver:  Solving for Bx, Initial residual = 0, Final residual = 0, No Iterations 0
smoothSolver:  Solving for By, Initial residual = 0, Final residual = 0, No Iterations 0
DICPCG:  Solving for pB, Initial residual = 0, Final residual = 0, No Iterations 0
magnetic flux divergence error = 0
smoothSolver:  Solving for Bx, Initial residual = 0, Final residual = 0, No Iterations 0
smoothSolver:  Solving for By, Initial residual = 0, Final residual = 0, No Iterations 0
DICPCG:  Solving for pB, Initial residual = 0, Final residual = 0, No Iterations 0
magnetic flux divergence error = 0
ExecutionTime = 1.02 s  ClockTime = 1 s

Courant Number mean: 0.04091650905 max: 0.06014388722
deltaT = 0.005
Time = 0.1147989018

PIMPLE: iteration 1
diagonal:  Solving for rho, Initial residual = 0, Final residual = 0, No Iterations 0
smoothSolver:  Solving for Ux, Initial residual = 0.01318103972, Final residual = 8.697811126e-07, No Iterations 12
smoothSolver:  Solving for Uy, Initial residual = 0.02175962329, Final residual = 6.234732287e-07, No Iterations 13
smoothSolver:  Solving for e, Initial residual = 0.3351151769, Final residual = 6.585223894e-07, No Iterations 31
DICPCG:  Solving for p, Initial residual = 0.2268002269, Final residual = 7.770487316e-07, No Iterations 31
diagonal:  Solving for rho, Initial residual = 0, Final residual = 0, No Iterations 0
time step continuity errors : sum local = 9.681704948e-10, global = -8.567261623e-11, cumulative = -1.139067823e-09
smoothSolver:  Solving for e, Initial residual = 0.01533725792, Final residual = 8.498559242e-07, No Iterations 23
DICPCG:  Solving for p, Initial residual = 0.001810579353, Final residual = 7.481681552e-07, No Iterations 20
diagonal:  Solving for rho, Initial residual = 0, Final residual = 0, No Iterations 0
time step continuity errors : sum local = 6.249873386e-10, global = -9.802964015e-11, cumulative = -1.237097463e-09
smoothSolver:  Solving for e, Initial residual = 0.005868946225, Final residual = 7.805499181e-07, No Iterations 21
DICPCG:  Solving for p, Initial residual = 0.003626522505, Final residual = 9.146130141e-07, No Iterations 20
diagonal:  Solving for rho, Initial residual = 0, Final residual = 0, No Iterations 0
time step continuity errors : sum local = 7.658475609e-10, global = -2.67946648e-11, cumulative = -1.263892128e-09
smoothSolver:  Solving for Bx, Initial residual = 0, Final residual = 0, No Iterations 0
smoothSolver:  Solving for By, Initial residual = 0, Final residual = 0, No Iterations 0
DICPCG:  Solving for pB, Initial residual = 0, Final residual = 0, No Iterations 0
magnetic flux divergence error = 0
smoothSolver:  Solving for Bx, Initial residual = 0, Final residual = 0, No Iterations 0
smoothSolver:  Solving for By, Initial residual = 0, Final residual = 0, No Iterations 0
DICPCG:  Solving for pB, Initial residual = 0, Final residual = 0, No Iterations 0
magnetic flux divergence error = 0
smoothSolver:  Solving for Bx, Initial residual = 0, Final residual = 0, No Iterations 0
smoothSolver:  Solving for By, Initial residual = 0, Final residual = 0, No Iterations 0
DICPCG:  Solving for pB, Initial residual = 0, Final residual = 0, No Iterations 0
magnetic flux divergence error = 0
ExecutionTime = 1.06 s  ClockTime = 1 s

Courant Number mean: 0.04105615328 max: 0.06028294934
deltaT = 0.005
Time = 0.1197989018

PIMPLE: iteration 1
diagonal:  Solving for rho, Initial residual = 0, Final residual = 0, No Iterations 0
smoothSolver:  Solving for Ux, Initial residual = 0.009532177658, Final residual = 9.641159116e-07, No Iterations 11
smoothSolver:  Solving for Uy, Initial residual = 0.01625753585, Final residual = 4.714826281e-07, No Iterations 13
smoothSolver:  Solving for e, Initial residual = 0.4617646563, Final residual = 9.132282432e-07, No Iterations 31
DICPCG:  Solving for p, Initial residual = 0.3296353568, Final residual = 6.809120779e-07, No Iterations 32
diagonal:  Solving for rho, Initial residual = 0, Final residual = 0, No Iterations 0
time step continuity errors : sum local = 5.860667956e-10, global = -5.243674561e-11, cumulative = -1.316328874e-09
smoothSolver:  Solving for e, Initial residual = 0.02930362455, Final residual = 7.292033177e-07, No Iterations 25
DICPCG:  Solving for p, Initial residual = 0.01604694775, Final residual = 9.461764364e-07, No Iterations 22
diagonal:  Solving for rho, Initial residual = 0, Final residual = 0, No Iterations 0
time step continuity errors : sum local = 3.443859651e-10, global = -2.678601089e-11, cumulative = -1.343114884e-09
smoothSolver:  Solving for e, Initial residual = 0.007366415929, Final residual = 9.704329019e-07, No Iterations 21
DICPCG:  Solving for p, Initial residual = 0.006906620131, Final residual = 9.622646183e-07, No Iterations 22
diagonal:  Solving for rho, Initial residual = 0, Final residual = 0, No Iterations 0
time step continuity errors : sum local = 3.51134291e-10, global = -4.637702855e-12, cumulative = -1.347752587e-09
smoothSolver:  Solving for Bx, Initial residual = 0, Final residual = 0, No Iterations 0
smoothSolver:  Solving for By, Initial residual = 0, Final residual = 0, No Iterations 0
DICPCG:  Solving for pB, Initial residual = 0, Final residual = 0, No Iterations 0
magnetic flux divergence error = 0
smoothSolver:  Solving for Bx, Initial residual = 0, Final residual = 0, No Iterations 0
smoothSolver:  Solving for By, Initial residual = 0, Final residual = 0, No Iterations 0
DICPCG:  Solving for pB, Initial residual = 0, Final residual = 0, No Iterations 0
magnetic flux divergence error = 0
smoothSolver:  Solving for Bx, Initial residual = 0, Final residual = 0, No Iterations 0
smoothSolver:  Solving for By, Initial residual = 0, Final residual = 0, No Iterations 0
DICPCG:  Solving for pB, Initial residual = 0, Final residual = 0, No Iterations 0
magnetic flux divergence error = 0
ExecutionTime = 1.1 s  ClockTime = 1 s

Courant Number mean: 0.04080719203 max: 0.06073598209
deltaT = 0.005
Time = 0.1247989018

PIMPLE: iteration 1
diagonal:  Solving for rho, Initial residual = 0, Final residual = 0, No Iterations 0
smoothSolver:  Solving for Ux, Initial residual = 0.01356044911, Final residual = 8.523486104e-07, No Iterations 12
smoothSolver:  Solving for Uy, Initial residual = 0.01270432843, Final residual = 8.380628193e-07, No Iterations 12
smoothSolver:  Solving for e, Initial residual = 0.5546082488, Final residual = 7.24096965e-07, No Iterations 32
DICPCG:  Solving for p, Initial residual = 0.510451171, Final residual = 9.265634389e-07, No Iterations 32
diagonal:  Solving for rho, Initial residual = 0, Final residual = 0, No Iterations 0
time step continuity errors : sum local = 5.142306377e-10, global = -4.070469793e-11, cumulative = -1.388457285e-09
smoothSolver:  Solving for e, Initial residual = 0.05159911818, Final residual = 8.311470135e-07, No Iterations 26
DICPCG:  Solving for p, Initial residual = 0.0283462972, Final residual = 9.388388858e-07, No Iterations 24
diagonal:  Solving for rho, Initial residual = 0, Final residual = 0, No Iterations 0
time step continuity errors : sum local = 3.200189385e-10, global = -4.596389643e-12, cumulative = -1.393053675e-09
smoothSolver:  Solving for e, Initial residual = 0.004033140764, Final residual = 8.053419934e-07, No Iterations 20
DICPCG:  Solving for p, Initial residual = 0.005064908605, Final residual = 8.740234819e-07, No Iterations 22
diagonal:  Solving for rho, Initial residual = 0, Final residual = 0, No Iterations 0
time step continuity errors : sum local = 2.883567663e-10, global = 2.82627972e-11, cumulative = -1.364790878e-09
smoothSolver:  Solving for Bx, Initial residual = 0, Final residual = 0, No Iterations 0
smoothSolver:  Solving for By, Initial residual = 0, Final residual = 0, No Iterations 0
DICPCG:  Solving for pB, Initial residual = 0, Final residual = 0, No Iterations 0
magnetic flux divergence error = 0
smoothSolver:  Solving for Bx, Initial residual = 0, Final residual = 0, No Iterations 0
smoothSolver:  Solving for By, Initial residual = 0, Final residual = 0, No Iterations 0
DICPCG:  Solving for pB, Initial residual = 0, Final residual = 0, No Iterations 0
magnetic flux divergence error = 0
smoothSolver:  Solving for Bx, Initial residual = 0, Final residual = 0, No Iterations 0
smoothSolver:  Solving for By, Initial residual = 0, Final residual = 0, No Iterations 0
DICPCG:  Solving for pB, Initial residual = 0, Final residual = 0, No Iterations 0
magnetic flux divergence error = 0
ExecutionTime = 1.14 s  ClockTime = 1 s

Courant Number mean: 0.04021336617 max: 0.06125756194
deltaT = 0.005
Time = 0.1297989018

PIMPLE: iteration 1
diagonal:  Solving for rho, Initial residual = 0, Final residual = 0, No Iterations 0
smoothSolver:  Solving for Ux, Initial residual = 0.01915276605, Final residual = 6.254358245e-07, No Iterations 13
smoothSolver:  Solving for Uy, Initial residual = 0.01189974788, Final residual = 7.157654321e-07, No Iterations 12
smoothSolver:  Solving for e, Initial residual = 0.4405633392, Final residual = 8.859929759e-07, No Iterations 31
DICPCG:  Solving for p, Initial residual = 0.5844772615, Final residual = 8.713773097e-07, No Iterations 32
diagonal:  Solving for rho, Initial residual = 0, Final residual = 0, No Iterations 0
time step continuity errors : sum local = 4.181131985e-10, global = -2.684279602e-11, cumulative = -1.391633674e-09
smoothSolver:  Solving for e, Initial residual = 0.0480029544, Final residual = 7.730206646e-07, No Iterations 26
DICPCG:  Solving for p, Initial residual = 0.01701653197, Final residual = 6.198458918e-07, No Iterations 24
diagonal:  Solving for rho, Initial residual = 0, Final residual = 0, No Iterations 0
time step continuity errors : sum local = 4.198402524e-10, global = 3.420106821e-11, cumulative = -1.357432605e-09
smoothSolver:  Solving for e, Initial residual = 0.00174518115, Final residual = 8.088759875e-07, No Iterations 18
DICPCG:  Solving for p, Initial residual = 0.001609150749, Final residual = 7.280191875e-07, No Iterations 20
[...]
time step continuity errors : sum local = 3.828176794e-10, global = 2.960233197e-11, cumulative = -2.014768523e-09
smoothSolver:  Solving for Bx, Initial residual = 0, Final residual = 0, No Iterations 0
smoothSolver:  Solving for By, Initial residual = 0, Final residual = 0, No Iterations 0
DICPCG:  Solving for pB, Initial residual = 0, Final residual = 0, No Iterations 0
magnetic flux divergence error = 0
smoothSolver:  Solving for Bx, Initial residual = 0, Final residual = 0, No Iterations 0
smoothSolver:  Solving for By, Initial residual = 0, Final residual = 0, No Iterations 0
DICPCG:  Solving for pB, Initial residual = 0, Final residual = 0, No Iterations 0
magnetic flux divergence error = 0
smoothSolver:  Solving for Bx, Initial residual = 0, Final residual = 0, No Iterations 0
smoothSolver:  Solving for By, Initial residual = 0, Final residual = 0, No Iterations 0
DICPCG:  Solving for pB, Initial residual = 0, Final residual = 0, No Iterations 0
magnetic flux divergence error = 0
ExecutionTime = 16.83 s  ClockTime = 17 s

Courant Number mean: 0.02567416815 max: 0.05909020624
deltaT = 0.005
Time = 1.9697989018

PIMPLE: iteration 1
diagonal:  Solving for rho, Initial residual = 0, Final residual = 0, No Iterations 0
smoothSolver:  Solving for Ux, Initial residual = 3.634235671e-05, Final residual = 5.790071563e-07, No Iterations 5
smoothSolver:  Solving for Uy, Initial residual = 5.094647264e-05, Final residual = 9.485121555e-07, No Iterations 5
smoothSolver:  Solving for e, Initial residual = 0.004386900431, Final residual = 9.208088034e-07, No Iterations 20
DICPCG:  Solving for p, Initial residual = 0.002008826206, Final residual = 9.419916496e-07, No Iterations 17
diagonal:  Solving for rho, Initial residual = 0, Final residual = 0, No Iterations 0
time step continuity errors : sum local = 4.265283839e-10, global = -1.80944607e-11, cumulative = -2.032862983e-09
smoothSolver:  Solving for e, Initial residual = 0.0001093660896, Final residual = 6.59977205e-07, No Iterations 12
DICPCG:  Solving for p, Initial residual = 1.875252319e-05, Final residual = 9.903836584e-07, No Iterations 6
diagonal:  Solving for rho, Initial residual = 0, Final residual = 0, No Iterations 0
time step continuity errors : sum local = 4.47635278e-10, global = 1.344354074e-11, cumulative = -2.019419442e-09
smoothSolver:  Solving for e, Initial residual = 1.336360591e-05, Final residual = 9.726530002e-07, No Iterations 6
DICPCG:  Solving for p, Initial residual = 5.500642869e-06, Final residual = 7.196192178e-07, No Iterations 5
diagonal:  Solving for rho, Initial residual = 0, Final residual = 0, No Iterations 0
time step continuity errors : sum local = 3.252613069e-10, global = 1.893370523e-11, cumulative = -2.000485737e-09
smoothSolver:  Solving for Bx, Initial residual = 0, Final residual = 0, No Iterations 0
smoothSolver:  Solving for By, Initial residual = 0, Final residual = 0, No Iterations 0
DICPCG:  Solving for pB, Initial residual = 0, Final residual = 0, No Iterations 0
magnetic flux divergence error = 0
smoothSolver:  Solving for Bx, Initial residual = 0, Final residual = 0, No Iterations 0
smoothSolver:  Solving for By, Initial residual = 0, Final residual = 0, No Iterations 0
DICPCG:  Solving for pB, Initial residual = 0, Final residual = 0, No Iterations 0
magnetic flux divergence error = 0
smoothSolver:  Solving for Bx, Initial residual = 0, Final residual = 0, No Iterations 0
smoothSolver:  Solving for By, Initial residual = 0, Final residual = 0, No Iterations 0
DICPCG:  Solving for pB, Initial residual = 0, Final residual = 0, No Iterations 0
magnetic flux divergence error = 0
ExecutionTime = 16.86 s  ClockTime = 17 s

Courant Number mean: 0.02567290974 max: 0.05909020513
deltaT = 0.005
Time = 1.9747989018

PIMPLE: iteration 1
diagonal:  Solving for rho, Initial residual = 0, Final residual = 0, No Iterations 0
smoothSolver:  Solving for Ux, Initial residual = 6.041597338e-05, Final residual = 4.940851386e-07, No Iterations 6
smoothSolver:  Solving for Uy, Initial residual = 3.935236685e-05, Final residual = 6.968004809e-07, No Iterations 5
smoothSolver:  Solving for e, Initial residual = 0.004256865357, Final residual = 8.942229948e-07, No Iterations 20
DICPCG:  Solving for p, Initial residual = 0.001923540794, Final residual = 9.023467981e-07, No Iterations 17
diagonal:  Solving for rho, Initial residual = 0, Final residual = 0, No Iterations 0
time step continuity errors : sum local = 4.075377321e-10, global = -1.73496307e-11, cumulative = -2.017835368e-09
smoothSolver:  Solving for e, Initial residual = 0.0001821307961, Final residual = 7.278327996e-07, No Iterations 13
DICPCG:  Solving for p, Initial residual = 2.873821433e-05, Final residual = 4.57860856e-07, No Iterations 7
diagonal:  Solving for rho, Initial residual = 0, Final residual = 0, No Iterations 0
time step continuity errors : sum local = 2.064348966e-10, global = 1.48311524e-11, cumulative = -2.003004216e-09
smoothSolver:  Solving for e, Initial residual = 1.224910459e-05, Final residual = 9.238792372e-07, No Iterations 6
DICPCG:  Solving for p, Initial residual = 5.107718739e-06, Final residual = 7.017365848e-07, No Iterations 5
diagonal:  Solving for rho, Initial residual = 0, Final residual = 0, No Iterations 0
time step continuity errors : sum local = 3.163994914e-10, global = 1.409481768e-11, cumulative = -1.988909398e-09
smoothSolver:  Solving for Bx, Initial residual = 0, Final residual = 0, No Iterations 0
smoothSolver:  Solving for By, Initial residual = 0, Final residual = 0, No Iterations 0
DICPCG:  Solving for pB, Initial residual = 0, Final residual = 0, No Iterations 0
magnetic flux divergence error = 0
smoothSolver:  Solving for Bx, Initial residual = 0, Final residual = 0, No Iterations 0
smoothSolver:  Solving for By, Initial residual = 0, Final residual = 0, No Iterations 0
DICPCG:  Solving for pB, Initial residual = 0, Final residual = 0, No Iterations 0
magnetic flux divergence error = 0
smoothSolver:  Solving for Bx, Initial residual = 0, Final residual = 0, No Iterations 0
smoothSolver:  Solving for By, Initial residual = 0, Final residual = 0, No Iterations 0
DICPCG:  Solving for pB, Initial residual = 0, Final residual = 0, No Iterations 0
magnetic flux divergence error = 0
ExecutionTime = 16.89 s  ClockTime = 17 s

Courant Number mean: 0.02567091416 max: 0.05909015402
deltaT = 0.005
Time = 1.9797989018

PIMPLE: iteration 1
diagonal:  Solving for rho, Initial residual = 0, Final residual = 0, No Iterations 0
smoothSolver:  Solving for Ux, Initial residual = 8.441618832e-05, Final residual = 7.164444305e-07, No Iterations 6
smoothSolver:  Solving for Uy, Initial residual = 2.987926654e-05, Final residual = 4.756145639e-07, No Iterations 5
smoothSolver:  Solving for e, Initial residual = 0.004056758458, Final residual = 8.529332722e-07, No Iterations 20
DICPCG:  Solving for p, Initial residual = 0.001804786827, Final residual = 8.538096385e-07, No Iterations 17
diagonal:  Solving for rho, Initial residual = 0, Final residual = 0, No Iterations 0
time step continuity errors : sum local = 3.846879783e-10, global = -1.624205876e-11, cumulative = -2.005151457e-09
smoothSolver:  Solving for e, Initial residual = 0.0002495457163, Final residual = 9.982443324e-07, No Iterations 13
DICPCG:  Solving for p, Initial residual = 3.781213505e-05, Final residual = 5.401771152e-07, No Iterations 7
diagonal:  Solving for rho, Initial residual = 0, Final residual = 0, No Iterations 0
time step continuity errors : sum local = 2.429892334e-10, global = 1.712889157e-11, cumulative = -1.988022565e-09
smoothSolver:  Solving for e, Initial residual = 1.176058697e-05, Final residual = 8.913651194e-07, No Iterations 6
DICPCG:  Solving for p, Initial residual = 4.848140185e-06, Final residual = 6.886410319e-07, No Iterations 5
diagonal:  Solving for rho, Initial residual = 0, Final residual = 0, No Iterations 0
time step continuity errors : sum local = 3.097859131e-10, global = 1.164415118e-11, cumulative = -1.976378414e-09
smoothSolver:  Solving for Bx, Initial residual = 0, Final residual = 0, No Iterations 0
smoothSolver:  Solving for By, Initial residual = 0, Final residual = 0, No Iterations 0
DICPCG:  Solving for pB, Initial residual = 0, Final residual = 0, No Iterations 0
magnetic flux divergence error = 0
smoothSolver:  Solving for Bx, Initial residual = 0, Final residual = 0, No Iterations 0
smoothSolver:  Solving for By, Initial residual = 0, Final residual = 0, No Iterations 0
DICPCG:  Solving for pB, Initial residual = 0, Final residual = 0, No Iterations 0
magnetic flux divergence error = 0
smoothSolver:  Solving for Bx, Initial residual = 0, Final residual = 0, No Iterations 0
smoothSolver:  Solving for By, Initial residual = 0, Final residual = 0, No Iterations 0
DICPCG:  Solving for pB, Initial residual = 0, Final residual = 0, No Iterations 0
magnetic flux divergence error = 0
ExecutionTime = 16.92 s  ClockTime = 17 s

Courant Number mean: 0.02566824482 max: 0.05909004913
deltaT = 0.005
Time = 1.9847989018

PIMPLE: iteration 1
diagonal:  Solving for rho, Initial residual = 0, Final residual = 0, No Iterations 0
smoothSolver:  Solving for Ux, Initial residual = 0.0001061171921, Final residual = 9.187132051e-07, No Iterations 6
smoothSolver:  Solving for Uy, Initial residual = 2.42251728e-05, Final residual = 7.211701652e-07, No Iterations 4
smoothSolver:  Solving for e, Initial residual = 0.003792690134, Final residual = 7.981890006e-07, No Iterations 20
DICPCG:  Solving for p, Initial residual = 0.001655715225, Final residual = 7.856821432e-07, No Iterations 17
diagonal:  Solving for rho, Initial residual = 0, Final residual = 0, No Iterations 0
time step continuity errors : sum local = 3.532034545e-10, global = -1.493048822e-11, cumulative = -1.991308902e-09
smoothSolver:  Solving for e, Initial residual = 0.0003105235662, Final residual = 8.140965642e-07, No Iterations 14
DICPCG:  Solving for p, Initial residual = 4.600364714e-05, Final residual = 6.415902734e-07, No Iterations 7
diagonal:  Solving for rho, Initial residual = 0, Final residual = 0, No Iterations 0
time step continuity errors : sum local = 2.880054467e-10, global = 2.011972797e-11, cumulative = -1.971189174e-09
smoothSolver:  Solving for e, Initial residual = 1.077433198e-05, Final residual = 8.106720975e-07, No Iterations 6
DICPCG:  Solving for p, Initial residual = 4.489801038e-06, Final residual = 6.973525291e-07, No Iterations 5
diagonal:  Solving for rho, Initial residual = 0, Final residual = 0, No Iterations 0
time step continuity errors : sum local = 3.130493026e-10, global = 1.560883263e-11, cumulative = -1.955580341e-09
smoothSolver:  Solving for Bx, Initial residual = 0, Final residual = 0, No Iterations 0
smoothSolver:  Solving for By, Initial residual = 0, Final residual = 0, No Iterations 0
DICPCG:  Solving for pB, Initial residual = 0, Final residual = 0, No Iterations 0
magnetic flux divergence error = 0
smoothSolver:  Solving for Bx, Initial residual = 0, Final residual = 0, No Iterations 0
smoothSolver:  Solving for By, Initial residual = 0, Final residual = 0, No Iterations 0
DICPCG:  Solving for pB, Initial residual = 0, Final residual = 0, No Iterations 0
magnetic flux divergence error = 0
smoothSolver:  Solving for Bx, Initial residual = 0, Final residual = 0, No Iterations 0
smoothSolver:  Solving for By, Initial residual = 0, Final residual = 0, No Iterations 0
DICPCG:  Solving for pB, Initial residual = 0, Final residual = 0, No Iterations 0
magnetic flux divergence error = 0
ExecutionTime = 16.95 s  ClockTime = 17 s

Courant Number mean: 0.02566497187 max: 0.05908989677
deltaT = 0.005
Time = 1.9897989018

PIMPLE: iteration 1
diagonal:  Solving for rho, Initial residual = 0, Final residual = 0, No Iterations 0
smoothSolver:  Solving for Ux, Initial residual = 0.0001251958676, Final residual = 5.009805702e-07, No Iterations 7
smoothSolver:  Solving for Uy, Initial residual = 2.234345207e-05, Final residual = 6.177637279e-07, No Iterations 4
smoothSolver:  Solving for e, Initial residual = 0.00347219803, Final residual = 7.315870329e-07, No Iterations 20
DICPCG:  Solving for p, Initial residual = 0.001479390421, Final residual = 7.055947377e-07, No Iterations 17
diagonal:  Solving for rho, Initial residual = 0, Final residual = 0, No Iterations 0
time step continuity errors : sum local = 3.165617523e-10, global = -1.333882625e-11, cumulative = -1.968919168e-09
smoothSolver:  Solving for e, Initial residual = 0.0003654236523, Final residual = 9.584344739e-07, No Iterations 14
DICPCG:  Solving for p, Initial residual = 5.318069376e-05, Final residual = 7.448506993e-07, No Iterations 7
diagonal:  Solving for rho, Initial residual = 0, Final residual = 0, No Iterations 0
time step continuity errors : sum local = 3.337380232e-10, global = 2.208709941e-11, cumulative = -1.946832068e-09
smoothSolver:  Solving for e, Initial residual = 9.768322292e-06, Final residual = 7.231071538e-07, No Iterations 6
DICPCG:  Solving for p, Initial residual = 4.021785321e-06, Final residual = 7.211483096e-07, No Iterations 5
diagonal:  Solving for rho, Initial residual = 0, Final residual = 0, No Iterations 0
time step continuity errors : sum local = 3.231337101e-10, global = 2.183836845e-11, cumulative = -1.9249937e-09
smoothSolver:  Solving for Bx, Initial residual = 0, Final residual = 0, No Iterations 0
smoothSolver:  Solving for By, Initial residual = 0, Final residual = 0, No Iterations 0
DICPCG:  Solving for pB, Initial residual = 0, Final residual = 0, No Iterations 0
magnetic flux divergence error = 0
smoothSolver:  Solving for Bx, Initial residual = 0, Final residual = 0, No Iterations 0
smoothSolver:  Solving for By, Initial residual = 0, Final residual = 0, No Iterations 0
DICPCG:  Solving for pB, Initial residual = 0, Final residual = 0, No Iterations 0
magnetic flux divergence error = 0
smoothSolver:  Solving for Bx, Initial residual = 0, Final residual = 0, No Iterations 0
smoothSolver:  Solving for By, Initial residual = 0, Final residual = 0, No Iterations 0
DICPCG:  Solving for pB, Initial residual = 0, Final residual = 0, No Iterations 0
magnetic flux divergence error = 0
ExecutionTime = 16.98 s  ClockTime = 17 s

Courant Number mean: 0.02566116542 max: 0.05908970016
deltaT = 0.005
Time = 1.9947989018

PIMPLE: iteration 1
diagonal:  Solving for rho, Initial residual = 0, Final residual = 0, No Iterations 0
smoothSolver:  Solving for Ux, Initial residual = 0.0001413698268, Final residual = 5.714235231e-07, No Iterations 7
smoothSolver:  Solving for Uy, Initial residual = 2.472744084e-05, Final residual = 7.625644154e-07, No Iterations 4
smoothSolver:  Solving for e, Initial residual = 0.003103071491, Final residual = 9.993211443e-07, No Iterations 19
DICPCG:  Solving for p, Initial residual = 0.001280219706, Final residual = 9.45687128e-07, No Iterations 16
diagonal:  Solving for rho, Initial residual = 0, Final residual = 0, No Iterations 0
time step continuity errors : sum local = 4.235286579e-10, global = -1.670909274e-11, cumulative = -1.941702793e-09
smoothSolver:  Solving for e, Initial residual = 0.0004105387223, Final residual = 7.053774375e-07, No Iterations 15
DICPCG:  Solving for p, Initial residual = 5.906164356e-05, Final residual = 8.927000259e-07, No Iterations 7
diagonal:  Solving for rho, Initial residual = 0, Final residual = 0, No Iterations 0
time step continuity errors : sum local = 3.99346609e-10, global = 2.39811527e-11, cumulative = -1.91772164e-09
smoothSolver:  Solving for e, Initial residual = 8.977858479e-06, Final residual = 9.468911109e-07, No Iterations 5
DICPCG:  Solving for p, Initial residual = 3.567793035e-06, Final residual = 8.270992999e-07, No Iterations 5
diagonal:  Solving for rho, Initial residual = 0, Final residual = 0, No Iterations 0
time step continuity errors : sum local = 3.70020086e-10, global = 2.878042024e-11, cumulative = -1.88894122e-09
smoothSolver:  Solving for Bx, Initial residual = 0, Final residual = 0, No Iterations 0
smoothSolver:  Solving for By, Initial residual = 0, Final residual = 0, No Iterations 0
DICPCG:  Solving for pB, Initial residual = 0, Final residual = 0, No Iterations 0
magnetic flux divergence error = 0
smoothSolver:  Solving for Bx, Initial residual = 0, Final residual = 0, No Iterations 0
smoothSolver:  Solving for By, Initial residual = 0, Final residual = 0, No Iterations 0
DICPCG:  Solving for pB, Initial residual = 0, Final residual = 0, No Iterations 0
magnetic flux divergence error = 0
smoothSolver:  Solving for Bx, Initial residual = 0, Final residual = 0, No Iterations 0
smoothSolver:  Solving for By, Initial residual = 0, Final residual = 0, No Iterations 0
DICPCG:  Solving for pB, Initial residual = 0, Final residual = 0, No Iterations 0
magnetic flux divergence error = 0
ExecutionTime = 17.01 s  ClockTime = 17 s

Courant Number mean: 0.02565691997 max: 0.05908946512
deltaT = 0.005
--> FOAM Warning : 
    From virtual Foam::Time& Foam::Time::operator++()
    in file db/Time/Time.C at line 1319
    Increased the timePrecision from 11 to 12 to distinguish between timeNames at time 1.99979890176
Time = 1.99979890176

PIMPLE: iteration 1
diagonal:  Solving for rho, Initial residual = 0, Final residual = 0, No Iterations 0
smoothSolver:  Solving for Ux, Initial residual = 0.0001544395146, Final residual = 6.291595683e-07, No Iterations 7
smoothSolver:  Solving for Uy, Initial residual = 3.217046234e-05, Final residual = 5.05633135e-07, No Iterations 5
smoothSolver:  Solving for e, Initial residual = 0.002695935685, Final residual = 8.696400603e-07, No Iterations 19
DICPCG:  Solving for p, Initial residual = 0.001062710084, Final residual = 7.862762846e-07, No Iterations 16
diagonal:  Solving for rho, Initial residual = 0, Final residual = 0, No Iterations 0
time step continuity errors : sum local = 3.516093758e-10, global = -1.391276745e-11, cumulative = -1.902853987e-09
smoothSolver:  Solving for e, Initial residual = 0.000447119623, Final residual = 7.683739815e-07, No Iterations 15
DICPCG:  Solving for p, Initial residual = 6.369747581e-05, Final residual = 9.926430698e-07, No Iterations 7
diagonal:  Solving for rho, Initial residual = 0, Final residual = 0, No Iterations 0
time step continuity errors : sum local = 4.434786255e-10, global = 2.531324703e-11, cumulative = -1.87754074e-09
smoothSolver:  Solving for e, Initial residual = 8.098399794e-06, Final residual = 8.13801293e-07, No Iterations 5
DICPCG:  Solving for p, Initial residual = 3.247319656e-06, Final residual = 8.402768743e-07, No Iterations 5
diagonal:  Solving for rho, Initial residual = 0, Final residual = 0, No Iterations 0
time step continuity errors : sum local = 3.754278856e-10, global = 4.058857545e-11, cumulative = -1.836952165e-09
smoothSolver:  Solving for Bx, Initial residual = 0, Final residual = 0, No Iterations 0
smoothSolver:  Solving for By, Initial residual = 0, Final residual = 0, No Iterations 0
DICPCG:  Solving for pB, Initial residual = 0, Final residual = 0, No Iterations 0
magnetic flux divergence error = 0
smoothSolver:  Solving for Bx, Initial residual = 0, Final residual = 0, No Iterations 0
smoothSolver:  Solving for By, Initial residual = 0, Final residual = 0, No Iterations 0
DICPCG:  Solving for pB, Initial residual = 0, Final residual = 0, No Iterations 0
magnetic flux divergence error = 0
smoothSolver:  Solving for Bx, Initial residual = 0, Final residual = 0, No Iterations 0
smoothSolver:  Solving for By, Initial residual = 0, Final residual = 0, No Iterations 0
DICPCG:  Solving for pB, Initial residual = 0, Final residual = 0, No Iterations 0
magnetic flux divergence error = 0
ExecutionTime = 17.04 s  ClockTime = 17 s

    functionObjects::components components(U) writing field: Ux
    functionObjects::components components(U) writing field: Uy
    functionObjects::components components(U) writing field: Uz
End

