/*---------------------------------------------------------------------------*\
| =========                 |                                                 |
| \\      /  F ield         | OpenFOAM: The Open Source CFD Toolbox           |
|  \\    /   O peration     | Version:  2012                                  |
|   \\  /    A nd           | Website:  www.openfoam.com                      |
|    \\/     M anipulation  |                                                 |
\*---------------------------------------------------------------------------*/
Build  : _269d0ffd5c-20210619 OPENFOAM=2012 patch=210618
Arch   : "LSB;label=32;scalar=64"
Exec   : mhdPimpleFoam
Date   : Apr 04 2022
Time   : 10:36:16
Host   : gabrielmarconcini-Lenovo-G50-80
PID    : 47680
I/O    : uncollated
Case   : /home/gabrielmarconcini/Documentos/TCC/PTCC/ShockTube/sim/NewSolver/ShockTube2_100
nProcs : 1
trapFpe: Floating point exception trapping enabled (FOAM_SIGFPE).
fileModificationChecking : Monitoring run-time modified files using timeStampMaster (fileModificationSkew 5, maxFileModificationPolls 20)
allowSystemOperations : Allowing user-supplied system call operations

// * * * * * * * * * * * * * * * * * * * * * * * * * * * * * * * * * * * * * //
Create time

Create mesh for time = 0


PIMPLE: no residual control data found. Calculations will employ 2 corrector loops

Reading thermophysical properties

Selecting thermodynamics package 
{
    type            hePsiThermo;
    mixture         pureMixture;
    transport       const;
    thermo          eConst;
    equationOfState perfectGas;
    specie          specie;
    energy          sensibleInternalEnergy;
}

Reading field U

Reading/calculating face flux field phi

Creating turbulence model

Selecting turbulence model type laminar
Selecting laminar stress model Stokes
Creating field dpdt

Creating field kinetic energy K

No MRF models present

No finite volume options present
Courant Number mean: 0 max: 0

Starting time loop

Courant Number mean: 0 max: 0
Time = 1e-05

PIMPLE: iteration 1
diagonal:  Solving for rho, Initial residual = 0, Final residual = 0, No Iterations 0
smoothSolver:  Solving for Ux, Initial residual = 1, Final residual = 0, No Iterations 1
smoothSolver:  Solving for e, Initial residual = 5.71873e-17, Final residual = 5.71873e-17, No Iterations 0
smoothSolver:  Solving for p, Initial residual = 1.78207e-05, Final residual = 1.74233e-17, No Iterations 2
diagonal:  Solving for rho, Initial residual = 0, Final residual = 0, No Iterations 0
time step continuity errors : sum local = 1.22669e-16, global = 9.89265e-18, cumulative = 9.89265e-18
PIMPLE: iteration 2
smoothSolver:  Solving for Ux, Initial residual = 0.000459566, Final residual = 5.39909e-18, No Iterations 1
smoothSolver:  Solving for e, Initial residual = 0.000130082, Final residual = 5.28729e-17, No Iterations 1
smoothSolver:  Solving for p, Initial residual = 1.63382e-05, Final residual = 1.76578e-17, No Iterations 2
diagonal:  Solving for rho, Initial residual = 0, Final residual = 0, No Iterations 0
time step continuity errors : sum local = 1.16239e-16, global = -1.4839e-18, cumulative = 8.40875e-18
ExecutionTime = 0.06 s  ClockTime = 0 s

Courant Number mean: 4.02349e-05 max: 0.00356645
Time = 2e-05

PIMPLE: iteration 1
diagonal:  Solving for rho, Initial residual = 0, Final residual = 0, No Iterations 0
smoothSolver:  Solving for Ux, Initial residual = 0.127385, Final residual = 1.27748e-17, No Iterations 1
smoothSolver:  Solving for e, Initial residual = 8.089e-05, Final residual = 4.40092e-17, No Iterations 2
smoothSolver:  Solving for p, Initial residual = 5.0097e-05, Final residual = 4.76481e-17, No Iterations 2
diagonal:  Solving for rho, Initial residual = 0, Final residual = 0, No Iterations 0
time step continuity errors : sum local = 2.1838e-16, global = 2.49789e-17, cumulative = 3.33877e-17
PIMPLE: iteration 2
smoothSolver:  Solving for Ux, Initial residual = 0.000828945, Final residual = 3.01439e-18, No Iterations 1
smoothSolver:  Solving for e, Initial residual = 0.00019326, Final residual = 3.51721e-17, No Iterations 2
smoothSolver:  Solving for p, Initial residual = 2.39326e-05, Final residual = 2.24527e-17, No Iterations 2
diagonal:  Solving for rho, Initial residual = 0, Final residual = 0, No Iterations 0
time step continuity errors : sum local = 1.3083e-16, global = -7.6668e-18, cumulative = 2.57209e-17
ExecutionTime = 0.06 s  ClockTime = 0 s

Courant Number mean: 0.000118699 max: 0.009602
Time = 3e-05

PIMPLE: iteration 1
diagonal:  Solving for rho, Initial residual = 0, Final residual = 0, No Iterations 0
smoothSolver:  Solving for Ux, Initial residual = 0.0679658, Final residual = 9.21631e-18, No Iterations 1
smoothSolver:  Solving for e, Initial residual = 0.000197345, Final residual = 5.0409e-17, No Iterations 2
smoothSolver:  Solving for p, Initial residual = 9.4421e-05, Final residual = 8.42537e-17, No Iterations 2
diagonal:  Solving for rho, Initial residual = 0, Final residual = 0, No Iterations 0
time step continuity errors : sum local = 2.85898e-16, global = 5.44096e-18, cumulative = 3.11618e-17
PIMPLE: iteration 2
smoothSolver:  Solving for Ux, Initial residual = 0.000829157, Final residual = 9.37524e-18, No Iterations 1
smoothSolver:  Solving for e, Initial residual = 0.000193924, Final residual = 5.09695e-16, No Iterations 2
smoothSolver:  Solving for p, Initial residual = 2.37353e-05, Final residual = 2.45182e-17, No Iterations 2
diagonal:  Solving for rho, Initial residual = 0, Final residual = 0, No Iterations 0
time step continuity errors : sum local = 1.24895e-16, global = 1.45917e-17, cumulative = 4.57535e-17
ExecutionTime = 0.06 s  ClockTime = 0 s

Courant Number mean: 0.000195047 max: 0.0154197
Time = 4e-05

PIMPLE: iteration 1
diagonal:  Solving for rho, Initial residual = 0, Final residual = 0, No Iterations 0
smoothSolver:  Solving for Ux, Initial residual = 0.0462274, Final residual = 2.15555e-17, No Iterations 1
smoothSolver:  Solving for e, Initial residual = 0.000345004, Final residual = 6.87849e-16, No Iterations 2
smoothSolver:  Solving for p, Initial residual = 0.000137221, Final residual = 1.18246e-16, No Iterations 2
diagonal:  Solving for rho, Initial residual = 0, Final residual = 0, No Iterations 0
time step continuity errors : sum local = 3.3363e-16, global = -2.8936e-17, cumulative = 1.68175e-17
PIMPLE: iteration 2
smoothSolver:  Solving for Ux, Initial residual = 0.000699417, Final residual = 1.64591e-17, No Iterations 1
smoothSolver:  Solving for e, Initial residual = 0.000173932, Final residual = 2.20826e-17, No Iterations 3
smoothSolver:  Solving for p, Initial residual = 2.10919e-05, Final residual = 2.34614e-17, No Iterations 2
diagonal:  Solving for rho, Initial residual = 0, Final residual = 0, No Iterations 0
time step continuity errors : sum local = 1.29099e-16, global = 7.41949e-18, cumulative = 2.4237e-17
ExecutionTime = 0.06 s  ClockTime = 0 s

Courant Number mean: 0.000254232 max: 0.0200695
Time = 5e-05

PIMPLE: iteration 1
diagonal:  Solving for rho, Initial residual = 0, Final residual = 0, No Iterations 0
smoothSolver:  Solving for Ux, Initial residual = 0.0348864, Final residual = 1.94191e-17, No Iterations 1
smoothSolver:  Solving for e, Initial residual = 0.000477847, Final residual = 3.66962e-17, No Iterations 3
smoothSolver:  Solving for p, Initial residual = 0.000175795, Final residual = 1.4957e-16, No Iterations 2
diagonal:  Solving for rho, Initial residual = 0, Final residual = 0, No Iterations 0
time step continuity errors : sum local = 3.8705e-16, global = -1.9538e-17, cumulative = 4.69901e-18
PIMPLE: iteration 2
smoothSolver:  Solving for Ux, Initial residual = 0.000675065, Final residual = 9.81197e-18, No Iterations 1
smoothSolver:  Solving for e, Initial residual = 0.000149812, Final residual = 2.92133e-17, No Iterations 3
smoothSolver:  Solving for p, Initial residual = 1.81231e-05, Final residual = 1.89189e-17, No Iterations 2
diagonal:  Solving for rho, Initial residual = 0, Final residual = 0, No Iterations 0
time step continuity errors : sum local = 1.34787e-16, global = 2.8936e-17, cumulative = 3.3635e-17
ExecutionTime = 0.06 s  ClockTime = 0 s

Courant Number mean: 0.000312037 max: 0.0241926
Time = 6e-05

PIMPLE: iteration 1
diagonal:  Solving for rho, Initial residual = 0, Final residual = 0, No Iterations 0
smoothSolver:  Solving for Ux, Initial residual = 0.0279543, Final residual = 2.03663e-18, No Iterations 1
smoothSolver:  Solving for e, Initial residual = 0.000593054, Final residual = 4.60282e-17, No Iterations 3
smoothSolver:  Solving for p, Initial residual = 0.000209959, Final residual = 1.76671e-16, No Iterations 2
diagonal:  Solving for rho, Initial residual = 0, Final residual = 0, No Iterations 0
time step continuity errors : sum local = 4.19943e-16, global = -5.09471e-17, cumulative = -1.73121e-17
PIMPLE: iteration 2
smoothSolver:  Solving for Ux, Initial residual = 0.000572425, Final residual = 1.18339e-17, No Iterations 1
smoothSolver:  Solving for e, Initial residual = 0.000122941, Final residual = 2.06741e-17, No Iterations 3
smoothSolver:  Solving for p, Initial residual = 1.48962e-05, Final residual = 2.03757e-17, No Iterations 2
diagonal:  Solving for rho, Initial residual = 0, Final residual = 0, No Iterations 0
time step continuity errors : sum local = 1.12282e-16, global = -5.93559e-18, cumulative = -2.32477e-17
ExecutionTime = 0.07 s  ClockTime = 0 s

Courant Number mean: 0.000357901 max: 0.0273269
Time = 7e-05

PIMPLE: iteration 1
diagonal:  Solving for rho, Initial residual = 0, Final residual = 0, No Iterations 0
smoothSolver:  Solving for Ux, Initial residual = 0.0232762, Final residual = 1.1981e-17, No Iterations 1
smoothSolver:  Solving for e, Initial residual = 0.000687938, Final residual = 5.2821e-17, No Iterations 3
smoothSolver:  Solving for p, Initial residual = 0.000239547, Final residual = 2.04565e-16, No Iterations 2
diagonal:  Solving for rho, Initial residual = 0, Final residual = 0, No Iterations 0
time step continuity errors : sum local = 4.70148e-16, global = -6.85066e-17, cumulative = -9.17543e-17
PIMPLE: iteration 2
smoothSolver:  Solving for Ux, Initial residual = 0.000504224, Final residual = 5.34487e-18, No Iterations 1
smoothSolver:  Solving for e, Initial residual = 9.59953e-05, Final residual = 3.98939e-17, No Iterations 3
smoothSolver:  Solving for p, Initial residual = 1.17743e-05, Final residual = 1.52612e-17, No Iterations 2
diagonal:  Solving for rho, Initial residual = 0, Final residual = 0, No Iterations 0
time step continuity errors : sum local = 9.86792e-17, global = -1.16239e-17, cumulative = -1.03378e-16
ExecutionTime = 0.07 s  ClockTime = 0 s

Courant Number mean: 0.000397114 max: 0.0297465
Time = 8e-05

PIMPLE: iteration 1
diagonal:  Solving for rho, Initial residual = 0, Final residual = 0, No Iterations 0
smoothSolver:  Solving for Ux, Initial residual = 0.0199375, Final residual = 7.27364e-18, No Iterations 1
smoothSolver:  Solving for e, Initial residual = 0.000762806, Final residual = 1.35555e-16, No Iterations 3
smoothSolver:  Solving for p, Initial residual = 0.000264946, Final residual = 2.22452e-16, No Iterations 2
diagonal:  Solving for rho, Initial residual = 0, Final residual = 0, No Iterations 0
time step continuity errors : sum local = 5.01557e-16, global = -6.23237e-17, cumulative = -1.65702e-16
PIMPLE: iteration 2
smoothSolver:  Solving for Ux, Initial residual = 0.000430926, Final residual = 1.03653e-17, No Iterations 1
smoothSolver:  Solving for e, Initial residual = 6.87702e-05, Final residual = 8.5141e-17, No Iterations 3
smoothSolver:  Solving for p, Initial residual = 8.67341e-06, Final residual = 1.30319e-17, No Iterations 2
diagonal:  Solving for rho, Initial residual = 0, Final residual = 0, No Iterations 0
time step continuity errors : sum local = 9.49694e-17, global = 9.89265e-18, cumulative = -1.55809e-16
ExecutionTime = 0.07 s  ClockTime = 0 s

Courant Number mean: 0.000429099 max: 0.0314783
Time = 9e-05

PIMPLE: iteration 1
diagonal:  Solving for rho, Initial residual = 0, Final residual = 0, No Iterations 0
smoothSolver:  Solving for Ux, Initial residual = 0.017446, Final residual = 4.30591e-18, No Iterations 1
smoothSolver:  Solving for e, Initial residual = 0.000817738, Final residual = 4.23413e-16, No Iterations 3
smoothSolver:  Solving for p, Initial residual = 0.000286606, Final residual = 2.43501e-16, No Iterations 2
diagonal:  Solving for rho, Initial residual = 0, Final residual = 0, No Iterations 0
time step continuity errors : sum local = 5.36676e-16, global = -6.38076e-17, cumulative = -2.19617e-16
PIMPLE: iteration 2
smoothSolver:  Solving for Ux, Initial residual = 0.000368376, Final residual = 8.83127e-18, No Iterations 1
smoothSolver:  Solving for e, Initial residual = 5.7886e-05, Final residual = 1.10631e-16, No Iterations 3
smoothSolver:  Solving for p, Initial residual = 7.47042e-06, Final residual = 1.32691e-17, No Iterations 2
diagonal:  Solving for rho, Initial residual = 0, Final residual = 0, No Iterations 0
time step continuity errors : sum local = 9.42275e-17, global = -5.19364e-18, cumulative = -2.2481e-16
ExecutionTime = 0.07 s  ClockTime = 0 s

Courant Number mean: 0.000455398 max: 0.0326504
Time = 0.0001

PIMPLE: iteration 1
diagonal:  Solving for rho, Initial residual = 0, Final residual = 0, No Iterations 0
smoothSolver:  Solving for Ux, Initial residual = 0.0155301, Final residual = 9.17496e-18, No Iterations 1
smoothSolver:  Solving for e, Initial residual = 0.000872766, Final residual = 6.91591e-16, No Iterations 3
smoothSolver:  Solving for p, Initial residual = 0.000306475, Final residual = 2.55757e-16, No Iterations 2
diagonal:  Solving for rho, Initial residual = 0, Final residual = 0, No Iterations 0
time step continuity errors : sum local = 5.5201e-16, global = -8.40875e-17, cumulative = -3.08898e-16
PIMPLE: iteration 2
smoothSolver:  Solving for Ux, Initial residual = 0.000314135, Final residual = 1.07617e-17, No Iterations 1
smoothSolver:  Solving for e, Initial residual = 4.79485e-05, Final residual = 1.17487e-16, No Iterations 3
smoothSolver:  Solving for p, Initial residual = 6.32463e-06, Final residual = 1.24375e-17, No Iterations 2
diagonal:  Solving for rho, Initial residual = 0, Final residual = 0, No Iterations 0
time step continuity errors : sum local = 9.76899e-17, global = -1.31078e-17, cumulative = -3.22006e-16
ExecutionTime = 0.07 s  ClockTime = 0 s

Courant Number mean: 0.000477153 max: 0.0333718
Time = 0.00011

PIMPLE: iteration 1
diagonal:  Solving for rho, Initial residual = 0, Final residual = 0, No Iterations 0
smoothSolver:  Solving for Ux, Initial residual = 0.0140208, Final residual = 8.03694e-18, No Iterations 1
smoothSolver:  Solving for e, Initial residual = 0.000923869, Final residual = 8.9285e-16, No Iterations 3
smoothSolver:  Solving for p, Initial residual = 0.000324102, Final residual = 2.73585e-16, No Iterations 2
diagonal:  Solving for rho, Initial residual = 0, Final residual = 0, No Iterations 0
time step continuity errors : sum local = 5.82924e-16, global = -8.92811e-17, cumulative = -4.11287e-16
PIMPLE: iteration 2
smoothSolver:  Solving for Ux, Initial residual = 0.00026843, Final residual = 7.886e-18, No Iterations 1
smoothSolver:  Solving for e, Initial residual = 3.16525e-05, Final residual = 1.90004e-17, No Iterations 2
smoothSolver:  Solving for p, Initial residual = 4.22933e-06, Final residual = 1.26075e-17, No Iterations 2
diagonal:  Solving for rho, Initial residual = 0, Final residual = 0, No Iterations 0
time step continuity errors : sum local = 9.37328e-17, global = 2.3495e-17, cumulative = -3.87792e-16
ExecutionTime = 0.07 s  ClockTime = 0 s

Courant Number mean: 0.000495449 max: 0.0337417
Time = 0.00012

PIMPLE: iteration 1
diagonal:  Solving for rho, Initial residual = 0, Final residual = 0, No Iterations 0
smoothSolver:  Solving for Ux, Initial residual = 0.0128087, Final residual = 9.8977e-18, No Iterations 1
smoothSolver:  Solving for e, Initial residual = 0.000959315, Final residual = 1.21616e-16, No Iterations 2
smoothSolver:  Solving for p, Initial residual = 0.000336462, Final residual = 2.83814e-16, No Iterations 2
diagonal:  Solving for rho, Initial residual = 0, Final residual = 0, No Iterations 0
time step continuity errors : sum local = 5.93312e-16, global = -8.58187e-17, cumulative = -4.73611e-16
PIMPLE: iteration 2
smoothSolver:  Solving for Ux, Initial residual = 0.000230979, Final residual = 1.30797e-17, No Iterations 1
smoothSolver:  Solving for e, Initial residual = 3.15751e-05, Final residual = 1.7694e-17, No Iterations 2
smoothSolver:  Solving for p, Initial residual = 3.22936e-06, Final residual = 1.02727e-17, No Iterations 2
diagonal:  Solving for rho, Initial residual = 0, Final residual = 0, No Iterations 0
time step continuity errors : sum local = 8.06251e-17, global = 1.97853e-18, cumulative = -4.71632e-16
ExecutionTime = 0.07 s  ClockTime = 0 s

Courant Number mean: 0.000511145 max: 0.0338408
Time = 0.00013

PIMPLE: iteration 1
diagonal:  Solving for rho, Initial residual = 0, Final residual = 0, No Iterations 0
smoothSolver:  Solving for Ux, Initial residual = 0.0118139, Final residual = 1.08703e-17, No Iterations 1
smoothSolver:  Solving for e, Initial residual = 0.000966437, Final residual = 1.76035e-16, No Iterations 2
smoothSolver:  Solving for p, Initial residual = 0.000346609, Final residual = 2.91585e-16, No Iterations 2
diagonal:  Solving for rho, Initial residual = 0, Final residual = 0, No Iterations 0
time step continuity errors : sum local = 5.98011e-16, global = -9.1507e-17, cumulative = -5.63139e-16
PIMPLE: iteration 2
smoothSolver:  Solving for Ux, Initial residual = 0.000200439, Final residual = 5.5487e-18, No Iterations 1
smoothSolver:  Solving for e, Initial residual = 3.16876e-05, Final residual = 2.02112e-17, No Iterations 2
smoothSolver:  Solving for p, Initial residual = 3.20192e-06, Final residual = 1.05102e-17, No Iterations 2
diagonal:  Solving for rho, Initial residual = 0, Final residual = 0, No Iterations 0
time step continuity errors : sum local = 8.80446e-17, global = 4.94632e-18, cumulative = -5.58193e-16
ExecutionTime = 0.08 s  ClockTime = 0 s

Courant Number mean: 0.000525048 max: 0.0337423
Time = 0.00014

PIMPLE: iteration 1
diagonal:  Solving for rho, Initial residual = 0, Final residual = 0, No Iterations 0
smoothSolver:  Solving for Ux, Initial residual = 0.0109724, Final residual = 1.03837e-17, No Iterations 1
smoothSolver:  Solving for e, Initial residual = 0.000963882, Final residual = 2.69178e-16, No Iterations 2
smoothSolver:  Solving for p, Initial residual = 0.000354683, Final residual = 2.98874e-16, No Iterations 2
diagonal:  Solving for rho, Initial residual = 0, Final residual = 0, No Iterations 0
time step continuity errors : sum local = 6.13344e-16, global = -8.45821e-17, cumulative = -6.42775e-16
PIMPLE: iteration 2
smoothSolver:  Solving for Ux, Initial residual = 0.000174892, Final residual = 1.06474e-17, No Iterations 1
smoothSolver:  Solving for e, Initial residual = 3.19736e-05, Final residual = 3.09419e-17, No Iterations 2
smoothSolver:  Solving for p, Initial residual = 4.3605e-06, Final residual = 9.45881e-18, No Iterations 2
diagonal:  Solving for rho, Initial residual = 0, Final residual = 0, No Iterations 0
time step continuity errors : sum local = 1.014e-16, global = 7.41949e-18, cumulative = -6.35355e-16
ExecutionTime = 0.08 s  ClockTime = 0 s

Courant Number mean: 0.000537749 max: 0.0335
Time = 0.00015

PIMPLE: iteration 1
diagonal:  Solving for rho, Initial residual = 0, Final residual = 0, No Iterations 0
smoothSolver:  Solving for Ux, Initial residual = 0.010245, Final residual = 6.80788e-18, No Iterations 1
smoothSolver:  Solving for e, Initial residual = 0.000953307, Final residual = 4.1572e-16, No Iterations 2
smoothSolver:  Solving for p, Initial residual = 0.00036097, Final residual = 2.99592e-16, No Iterations 2
diagonal:  Solving for rho, Initial residual = 0, Final residual = 0, No Iterations 0
time step continuity errors : sum local = 6.27194e-16, global = -9.54641e-17, cumulative = -7.30819e-16
PIMPLE: iteration 2
smoothSolver:  Solving for Ux, Initial residual = 0.00015424, Final residual = 6.34292e-18, No Iterations 1
smoothSolver:  Solving for e, Initial residual = 3.71612e-05, Final residual = 4.54395e-17, No Iterations 2
smoothSolver:  Solving for p, Initial residual = 5.33893e-06, Final residual = 1.25115e-17, No Iterations 2
diagonal:  Solving for rho, Initial residual = 0, Final residual = 0, No Iterations 0
time step continuity errors : sum local = 8.40875e-17, global = -2.96779e-18, cumulative = -7.33787e-16
ExecutionTime = 0.08 s  ClockTime = 0 s

Courant Number mean: 0.000549731 max: 0.0331573
Time = 0.00016

PIMPLE: iteration 1
diagonal:  Solving for rho, Initial residual = 0, Final residual = 0, No Iterations 0
smoothSolver:  Solving for Ux, Initial residual = 0.00962226, Final residual = 1.36139e-17, No Iterations 1
smoothSolver:  Solving for e, Initial residual = 0.000936233, Final residual = 6.40637e-16, No Iterations 2
smoothSolver:  Solving for p, Initial residual = 0.000365725, Final residual = 3.05812e-16, No Iterations 2
diagonal:  Solving for rho, Initial residual = 0, Final residual = 0, No Iterations 0
time step continuity errors : sum local = 6.41044e-16, global = -8.16143e-17, cumulative = -8.15401e-16
PIMPLE: iteration 2
smoothSolver:  Solving for Ux, Initial residual = 0.000137685, Final residual = 1.27044e-17, No Iterations 1
smoothSolver:  Solving for e, Initial residual = 4.35631e-05, Final residual = 6.59988e-17, No Iterations 2
smoothSolver:  Solving for p, Initial residual = 6.16291e-06, Final residual = 1.25269e-17, No Iterations 2
diagonal:  Solving for rho, Initial residual = 0, Final residual = 0, No Iterations 0
time step continuity errors : sum local = 9.02704e-17, global = -6.1829e-18, cumulative = -8.21584e-16
ExecutionTime = 0.08 s  ClockTime = 0 s

Courant Number mean: 0.000561377 max: 0.0327477
Time = 0.00017

PIMPLE: iteration 1
diagonal:  Solving for rho, Initial residual = 0, Final residual = 0, No Iterations 0
smoothSolver:  Solving for Ux, Initial residual = 0.00908407, Final residual = 7.76116e-18, No Iterations 1
smoothSolver:  Solving for e, Initial residual = 0.000914008, Final residual = 9.71063e-16, No Iterations 2
smoothSolver:  Solving for p, Initial residual = 0.000369172, Final residual = 3.02386e-16, No Iterations 2
diagonal:  Solving for rho, Initial residual = 0, Final residual = 0, No Iterations 0
time step continuity errors : sum local = 6.39807e-16, global = -8.23563e-17, cumulative = -9.03941e-16
PIMPLE: iteration 2
smoothSolver:  Solving for Ux, Initial residual = 0.000124508, Final residual = 1.23393e-17, No Iterations 1
smoothSolver:  Solving for e, Initial residual = 4.88859e-05, Final residual = 1.00089e-16, No Iterations 2
smoothSolver:  Solving for p, Initial residual = 6.85617e-06, Final residual = 1.2502e-17, No Iterations 2
diagonal:  Solving for rho, Initial residual = 0, Final residual = 0, No Iterations 0
time step continuity errors : sum local = 9.29909e-17, global = 4.94632e-19, cumulative = -9.03446e-16
ExecutionTime = 0.08 s  ClockTime = 0 s

Courant Number mean: 0.00057299 max: 0.032297
Time = 0.00018

PIMPLE: iteration 1
diagonal:  Solving for rho, Initial residual = 0, Final residual = 0, No Iterations 0
smoothSolver:  Solving for Ux, Initial residual = 0.0086136, Final residual = 1.06392e-17, No Iterations 1
smoothSolver:  Solving for e, Initial residual = 0.000887812, Final residual = 3.91675e-17, No Iterations 3
smoothSolver:  Solving for p, Initial residual = 0.000371507, Final residual = 3.02783e-16, No Iterations 2
diagonal:  Solving for rho, Initial residual = 0, Final residual = 0, No Iterations 0
time step continuity errors : sum local = 6.46979e-16, global = -7.6668e-17, cumulative = -9.80114e-16
PIMPLE: iteration 2
smoothSolver:  Solving for Ux, Initial residual = 0.000114135, Final residual = 9.36067e-18, No Iterations 1
smoothSolver:  Solving for e, Initial residual = 5.33529e-05, Final residual = 1.48822e-16, No Iterations 2
smoothSolver:  Solving for p, Initial residual = 7.44053e-06, Final residual = 1.49028e-17, No Iterations 2
diagonal:  Solving for rho, Initial residual = 0, Final residual = 0, No Iterations 0
time step continuity errors : sum local = 1.014e-16, global = -1.28604e-17, cumulative = -9.92975e-16
ExecutionTime = 0.08 s  ClockTime = 0 s

Courant Number mean: 0.000584818 max: 0.0318246
Time = 0.00019

PIMPLE: iteration 1
diagonal:  Solving for rho, Initial residual = 0, Final residual = 0, No Iterations 0
smoothSolver:  Solving for Ux, Initial residual = 0.00819779, Final residual = 2.28856e-17, No Iterations 1
smoothSolver:  Solving for e, Initial residual = 0.000858676, Final residual = 3.78122e-17, No Iterations 3
smoothSolver:  Solving for p, Initial residual = 0.000372903, Final residual = 3.02375e-16, No Iterations 2
diagonal:  Solving for rho, Initial residual = 0, Final residual = 0, No Iterations 0
time step continuity errors : sum local = 6.29172e-16, global = -6.97432e-17, cumulative = -1.06272e-15
PIMPLE: iteration 2
smoothSolver:  Solving for Ux, Initial residual = 0.000106106, Final residual = 8.6203e-18, No Iterations 1
smoothSolver:  Solving for e, Initial residual = 5.71522e-05, Final residual = 2.38752e-16, No Iterations 2
smoothSolver:  Solving for p, Initial residual = 7.93358e-06, Final residual = 1.17951e-17, No Iterations 2
diagonal:  Solving for rho, Initial residual = 0, Final residual = 0, No Iterations 0
time step continuity errors : sum local = 9.44748e-17, global = 4.94632e-18, cumulative = -1.05777e-15
ExecutionTime = 0.08 s  ClockTime = 0 s

Courant Number mean: 0.000597064 max: 0.0313454
Time = 0.0002

PIMPLE: iteration 1
diagonal:  Solving for rho, Initial residual = 0, Final residual = 0, No Iterations 0
smoothSolver:  Solving for Ux, Initial residual = 0.00782633, Final residual = 8.53732e-18, No Iterations 1
smoothSolver:  Solving for e, Initial residual = 0.000826657, Final residual = 4.27598e-17, No Iterations 3
smoothSolver:  Solving for p, Initial residual = 0.000373512, Final residual = 3.05515e-16, No Iterations 2
diagonal:  Solving for rho, Initial residual = 0, Final residual = 0, No Iterations 0
time step continuity errors : sum local = 6.5613e-16, global = -8.97758e-17, cumulative = -1.14755e-15
PIMPLE: iteration 2
smoothSolver:  Solving for Ux, Initial residual = 9.92331e-05, Final residual = 1.31766e-17, No Iterations 1
smoothSolver:  Solving for e, Initial residual = 5.95646e-05, Final residual = 3.79408e-16, No Iterations 2
smoothSolver:  Solving for p, Initial residual = 8.26648e-06, Final residual = 1.53314e-17, No Iterations 2
diagonal:  Solving for rho, Initial residual = 0, Final residual = 0, No Iterations 0
time step continuity errors : sum local = 8.33456e-17, global = 5.68827e-18, cumulative = -1.14186e-15
ExecutionTime = 0.08 s  ClockTime = 0 s

Courant Number mean: 0.000609795 max: 0.0308702
Time = 0.00021

PIMPLE: iteration 1
diagonal:  Solving for rho, Initial residual = 0, Final residual = 0, No Iterations 0
smoothSolver:  Solving for Ux, Initial residual = 0.00749177, Final residual = 6.20134e-18, No Iterations 1
smoothSolver:  Solving for e, Initial residual = 0.000792669, Final residual = 4.39082e-17, No Iterations 3
smoothSolver:  Solving for p, Initial residual = 0.00037348, Final residual = 3.03061e-16, No Iterations 2
diagonal:  Solving for rho, Initial residual = 0, Final residual = 0, No Iterations 0
time step continuity errors : sum local = 6.26452e-16, global = -8.63134e-17, cumulative = -1.22817e-15
PIMPLE: iteration 2
smoothSolver:  Solving for Ux, Initial residual = 9.27219e-05, Final residual = 9.1819e-18, No Iterations 1
smoothSolver:  Solving for e, Initial residual = 6.04131e-05, Final residual = 5.57944e-16, No Iterations 2
smoothSolver:  Solving for p, Initial residual = 8.41001e-06, Final residual = 1.49141e-17, No Iterations 2
diagonal:  Solving for rho, Initial residual = 0, Final residual = 0, No Iterations 0
time step continuity errors : sum local = 9.1507e-17, global = -1.08869e-31, cumulative = -1.22817e-15
ExecutionTime = 0.08 s  ClockTime = 0 s

Courant Number mean: 0.000622981 max: 0.0304071
Time = 0.00022

PIMPLE: iteration 1
diagonal:  Solving for rho, Initial residual = 0, Final residual = 0, No Iterations 0
smoothSolver:  Solving for Ux, Initial residual = 0.00718878, Final residual = 3.72678e-18, No Iterations 1
smoothSolver:  Solving for e, Initial residual = 0.000758278, Final residual = 4.46696e-17, No Iterations 3
smoothSolver:  Solving for p, Initial residual = 0.000372937, Final residual = 3.03326e-16, No Iterations 2
diagonal:  Solving for rho, Initial residual = 0, Final residual = 0, No Iterations 0
time step continuity errors : sum local = 6.42527e-16, global = -6.13344e-17, cumulative = -1.28951e-15
PIMPLE: iteration 2
smoothSolver:  Solving for Ux, Initial residual = 8.63831e-05, Final residual = 1.03744e-17, No Iterations 1
smoothSolver:  Solving for e, Initial residual = 5.99484e-05, Final residual = 8.04602e-16, No Iterations 2
smoothSolver:  Solving for p, Initial residual = 8.3943e-06, Final residual = 1.4677e-17, No Iterations 2
diagonal:  Solving for rho, Initial residual = 0, Final residual = 0, No Iterations 0
time step continuity errors : sum local = 9.1507e-17, global = -2.96779e-18, cumulative = -1.29247e-15
ExecutionTime = 0.09 s  ClockTime = 0 s

Courant Number mean: 0.00063657 max: 0.0299615
Time = 0.00023

PIMPLE: iteration 1
diagonal:  Solving for rho, Initial residual = 0, Final residual = 0, No Iterations 0
smoothSolver:  Solving for Ux, Initial residual = 0.00691323, Final residual = 5.40175e-18, No Iterations 1
smoothSolver:  Solving for e, Initial residual = 0.000736335, Final residual = 4.27844e-17, No Iterations 3
smoothSolver:  Solving for p, Initial residual = 0.000371992, Final residual = 3.00444e-16, No Iterations 2
diagonal:  Solving for rho, Initial residual = 0, Final residual = 0, No Iterations 0
time step continuity errors : sum local = 6.44011e-16, global = -8.6066e-17, cumulative = -1.37854e-15
PIMPLE: iteration 2
smoothSolver:  Solving for Ux, Initial residual = 8.02619e-05, Final residual = 1.08005e-17, No Iterations 1
smoothSolver:  Solving for e, Initial residual = 5.85539e-05, Final residual = 2.66568e-17, No Iterations 3
smoothSolver:  Solving for p, Initial residual = 8.26669e-06, Final residual = 1.56872e-17, No Iterations 2
diagonal:  Solving for rho, Initial residual = 0, Final residual = 0, No Iterations 0
time step continuity errors : sum local = 8.82919e-17, global = -4.20438e-18, cumulative = -1.38274e-15
ExecutionTime = 0.09 s  ClockTime = 0 s

Courant Number mean: 0.000650514 max: 0.0295371
Time = 0.00024

PIMPLE: iteration 1
diagonal:  Solving for rho, Initial residual = 0, Final residual = 0, No Iterations 0
smoothSolver:  Solving for Ux, Initial residual = 0.00666172, Final residual = 1.53861e-17, No Iterations 1
smoothSolver:  Solving for e, Initial residual = 0.000743381, Final residual = 3.89817e-17, No Iterations 3
smoothSolver:  Solving for p, Initial residual = 0.000370728, Final residual = 2.95978e-16, No Iterations 2
diagonal:  Solving for rho, Initial residual = 0, Final residual = 0, No Iterations 0
time step continuity errors : sum local = 6.11118e-16, global = -8.08724e-17, cumulative = -1.46362e-15
PIMPLE: iteration 2
smoothSolver:  Solving for Ux, Initial residual = 7.44988e-05, Final residual = 1.26073e-17, No Iterations 1
smoothSolver:  Solving for e, Initial residual = 3.15366e-05, Final residual = 9.51535e-16, No Iterations 2
smoothSolver:  Solving for p, Initial residual = 4.90557e-06, Final residual = 1.24573e-17, No Iterations 2
diagonal:  Solving for rho, Initial residual = 0, Final residual = 0, No Iterations 0
time step continuity errors : sum local = 9.67006e-17, global = 3.21511e-18, cumulative = -1.4604e-15
ExecutionTime = 0.09 s  ClockTime = 0 s

Courant Number mean: 0.000664729 max: 0.0291336
Time = 0.00025

PIMPLE: iteration 1
diagonal:  Solving for rho, Initial residual = 0, Final residual = 0, No Iterations 0
smoothSolver:  Solving for Ux, Initial residual = 0.00643116, Final residual = 1.05938e-17, No Iterations 1
smoothSolver:  Solving for e, Initial residual = 0.000749741, Final residual = 3.61125e-17, No Iterations 3
smoothSolver:  Solving for p, Initial residual = 0.000372224, Final residual = 2.96834e-16, No Iterations 2
diagonal:  Solving for rho, Initial residual = 0, Final residual = 0, No Iterations 0
time step continuity errors : sum local = 6.25215e-16, global = -8.75499e-17, cumulative = -1.54795e-15
PIMPLE: iteration 2
smoothSolver:  Solving for Ux, Initial residual = 6.92224e-05, Final residual = 9.57984e-18, No Iterations 1
smoothSolver:  Solving for e, Initial residual = 2.95295e-05, Final residual = 2.08613e-17, No Iterations 3
smoothSolver:  Solving for p, Initial residual = 4.9724e-06, Final residual = 1.52423e-17, No Iterations 2
diagonal:  Solving for rho, Initial residual = 0, Final residual = 0, No Iterations 0
time step continuity errors : sum local = 9.71953e-17, global = 8.65607e-18, cumulative = -1.5393e-15
ExecutionTime = 0.09 s  ClockTime = 0 s

Courant Number mean: 0.000679325 max: 0.0287569
Time = 0.00026

PIMPLE: iteration 1
diagonal:  Solving for rho, Initial residual = 0, Final residual = 0, No Iterations 0
smoothSolver:  Solving for Ux, Initial residual = 0.006242, Final residual = 1.43033e-17, No Iterations 1
smoothSolver:  Solving for e, Initial residual = 0.000755768, Final residual = 4.66496e-17, No Iterations 3
smoothSolver:  Solving for p, Initial residual = 0.000373524, Final residual = 2.95479e-16, No Iterations 2
diagonal:  Solving for rho, Initial residual = 0, Final residual = 0, No Iterations 0
time step continuity errors : sum local = 6.31151e-16, global = -7.02378e-17, cumulative = -1.60953e-15
PIMPLE: iteration 2
smoothSolver:  Solving for Ux, Initial residual = 6.43718e-05, Final residual = 1.55179e-17, No Iterations 1
smoothSolver:  Solving for e, Initial residual = 2.7632e-05, Final residual = 2.35567e-17, No Iterations 3
smoothSolver:  Solving for p, Initial residual = 5.27657e-06, Final residual = 1.2451e-17, No Iterations 2
diagonal:  Solving for rho, Initial residual = 0, Final residual = 0, No Iterations 0
time step continuity errors : sum local = 9.6206e-17, global = 3.21511e-18, cumulative = -1.60632e-15
ExecutionTime = 0.09 s  ClockTime = 0 s

Courant Number mean: 0.000694274 max: 0.0284063
Time = 0.00027

PIMPLE: iteration 1
diagonal:  Solving for rho, Initial residual = 0, Final residual = 0, No Iterations 0
smoothSolver:  Solving for Ux, Initial residual = 0.00613205, Final residual = 7.72539e-18, No Iterations 1
smoothSolver:  Solving for e, Initial residual = 0.00076148, Final residual = 3.8643e-17, No Iterations 3
smoothSolver:  Solving for p, Initial residual = 0.000374439, Final residual = 2.93848e-16, No Iterations 2
diagonal:  Solving for rho, Initial residual = 0, Final residual = 0, No Iterations 0
time step continuity errors : sum local = 6.06419e-16, global = -7.71627e-17, cumulative = -1.68348e-15
PIMPLE: iteration 2
smoothSolver:  Solving for Ux, Initial residual = 6.00669e-05, Final residual = 1.0509e-17, No Iterations 1
smoothSolver:  Solving for e, Initial residual = 2.59156e-05, Final residual = 2.33277e-17, No Iterations 3
smoothSolver:  Solving for p, Initial residual = 5.56784e-06, Final residual = 1.20706e-17, No Iterations 2
diagonal:  Solving for rho, Initial residual = 0, Final residual = 0, No Iterations 0
time step continuity errors : sum local = 8.80446e-17, global = -1.23658e-17, cumulative = -1.69585e-15
ExecutionTime = 0.09 s  ClockTime = 0 s

Courant Number mean: 0.000709581 max: 0.0280818
Time = 0.00028

PIMPLE: iteration 1
diagonal:  Solving for rho, Initial residual = 0, Final residual = 0, No Iterations 0
smoothSolver:  Solving for Ux, Initial residual = 0.00602385, Final residual = 7.75446e-18, No Iterations 1
smoothSolver:  Solving for e, Initial residual = 0.000766918, Final residual = 3.72495e-17, No Iterations 3
smoothSolver:  Solving for p, Initial residual = 0.000374993, Final residual = 2.9356e-16, No Iterations 2
diagonal:  Solving for rho, Initial residual = 0, Final residual = 0, No Iterations 0
time step continuity errors : sum local = 6.31646e-16, global = -9.10124e-17, cumulative = -1.78686e-15
PIMPLE: iteration 2
smoothSolver:  Solving for Ux, Initial residual = 5.62743e-05, Final residual = 1.94482e-17, No Iterations 1
smoothSolver:  Solving for e, Initial residual = 2.52399e-05, Final residual = 2.38953e-17, No Iterations 3
smoothSolver:  Solving for p, Initial residual = 5.84611e-06, Final residual = 1.45776e-17, No Iterations 2
diagonal:  Solving for rho, Initial residual = 0, Final residual = 0, No Iterations 0
time step continuity errors : sum local = 1.014e-16, global = 5.44096e-18, cumulative = -1.78142e-15
ExecutionTime = 0.1 s  ClockTime = 0 s

Courant Number mean: 0.000725259 max: 0.0277831
Time = 0.00029

PIMPLE: iteration 1
diagonal:  Solving for rho, Initial residual = 0, Final residual = 0, No Iterations 0
smoothSolver:  Solving for Ux, Initial residual = 0.00591772, Final residual = 8.52794e-18, No Iterations 1
smoothSolver:  Solving for e, Initial residual = 0.000772126, Final residual = 4.63305e-17, No Iterations 3
smoothSolver:  Solving for p, Initial residual = 0.000375203, Final residual = 2.97675e-16, No Iterations 2
diagonal:  Solving for rho, Initial residual = 0, Final residual = 0, No Iterations 0
time step continuity errors : sum local = 6.10624e-16, global = -7.29583e-17, cumulative = -1.85438e-15
PIMPLE: iteration 2
smoothSolver:  Solving for Ux, Initial residual = 5.29189e-05, Final residual = 1.6017e-17, No Iterations 1
smoothSolver:  Solving for e, Initial residual = 2.52428e-05, Final residual = 2.20326e-17, No Iterations 3
smoothSolver:  Solving for p, Initial residual = 6.11999e-06, Final residual = 1.39384e-17, No Iterations 2
diagonal:  Solving for rho, Initial residual = 0, Final residual = 0, No Iterations 0
time step continuity errors : sum local = 1.11045e-16, global = -2.05272e-17, cumulative = -1.8749e-15
ExecutionTime = 0.1 s  ClockTime = 0 s

Courant Number mean: 0.000741323 max: 0.0275104
Time = 0.0003

PIMPLE: iteration 1
diagonal:  Solving for rho, Initial residual = 0, Final residual = 0, No Iterations 0
smoothSolver:  Solving for Ux, Initial residual = 0.00581393, Final residual = 1.09314e-17, No Iterations 1
smoothSolver:  Solving for e, Initial residual = 0.000777148, Final residual = 4.24627e-17, No Iterations 3
smoothSolver:  Solving for p, Initial residual = 0.000375091, Final residual = 2.90614e-16, No Iterations 2
diagonal:  Solving for rho, Initial residual = 0, Final residual = 0, No Iterations 0
time step continuity errors : sum local = 6.02215e-16, global = -6.70227e-17, cumulative = -1.94193e-15
PIMPLE: iteration 2
smoothSolver:  Solving for Ux, Initial residual = 4.99263e-05, Final residual = 1.16356e-17, No Iterations 1
smoothSolver:  Solving for e, Initial residual = 2.64287e-05, Final residual = 2.25028e-17, No Iterations 3
smoothSolver:  Solving for p, Initial residual = 6.38946e-06, Final residual = 1.18079e-17, No Iterations 2
diagonal:  Solving for rho, Initial residual = 0, Final residual = 0, No Iterations 0
time step continuity errors : sum local = 9.57114e-17, global = 2.72048e-18, cumulative = -1.93921e-15
ExecutionTime = 0.1 s  ClockTime = 0 s

Courant Number mean: 0.000757785 max: 0.0272633
Time = 0.00031

PIMPLE: iteration 1
diagonal:  Solving for rho, Initial residual = 0, Final residual = 0, No Iterations 0
smoothSolver:  Solving for Ux, Initial residual = 0.00571263, Final residual = 9.65349e-18, No Iterations 1
smoothSolver:  Solving for e, Initial residual = 0.000782019, Final residual = 3.56867e-17, No Iterations 3
smoothSolver:  Solving for p, Initial residual = 0.000374678, Final residual = 2.91045e-16, No Iterations 2
diagonal:  Solving for rho, Initial residual = 0, Final residual = 0, No Iterations 0
time step continuity errors : sum local = 6.16065e-16, global = -5.76247e-17, cumulative = -1.99683e-15
PIMPLE: iteration 2
smoothSolver:  Solving for Ux, Initial residual = 4.72338e-05, Final residual = 8.69523e-18, No Iterations 1
smoothSolver:  Solving for e, Initial residual = 2.82088e-05, Final residual = 2.66424e-17, No Iterations 3
smoothSolver:  Solving for p, Initial residual = 6.65429e-06, Final residual = 1.33996e-17, No Iterations 2
diagonal:  Solving for rho, Initial residual = 0, Final residual = 0, No Iterations 0
time step continuity errors : sum local = 9.86792e-17, global = 2.74521e-17, cumulative = -1.96938e-15
ExecutionTime = 0.1 s  ClockTime = 0 s

Courant Number mean: 0.000774651 max: 0.0270414
Time = 0.00032

PIMPLE: iteration 1
diagonal:  Solving for rho, Initial residual = 0, Final residual = 0, No Iterations 0
smoothSolver:  Solving for Ux, Initial residual = 0.00561245, Final residual = 8.3457e-18, No Iterations 1
smoothSolver:  Solving for e, Initial residual = 0.000786773, Final residual = 4.14237e-17, No Iterations 3
smoothSolver:  Solving for p, Initial residual = 0.000373982, Final residual = 2.89667e-16, No Iterations 2
diagonal:  Solving for rho, Initial residual = 0, Final residual = 0, No Iterations 0
time step continuity errors : sum local = 6.13344e-16, global = -8.26036e-17, cumulative = -2.05198e-15
PIMPLE: iteration 2
smoothSolver:  Solving for Ux, Initial residual = 4.4766e-05, Final residual = 8.62767e-18, No Iterations 1
smoothSolver:  Solving for e, Initial residual = 2.9893e-05, Final residual = 2.3153e-17, No Iterations 3
smoothSolver:  Solving for p, Initial residual = 6.90324e-06, Final residual = 1.49406e-17, No Iterations 2
diagonal:  Solving for rho, Initial residual = 0, Final residual = 0, No Iterations 0
time step continuity errors : sum local = 9.12597e-17, global = 1.36024e-17, cumulative = -2.03838e-15
ExecutionTime = 0.1 s  ClockTime = 0 s

Courant Number mean: 0.000791914 max: 0.0268444
Time = 0.00033

PIMPLE: iteration 1
diagonal:  Solving for rho, Initial residual = 0, Final residual = 0, No Iterations 0
smoothSolver:  Solving for Ux, Initial residual = 0.00551134, Final residual = 5.58329e-18, No Iterations 1
smoothSolver:  Solving for e, Initial residual = 0.00079144, Final residual = 4.23744e-17, No Iterations 3
smoothSolver:  Solving for p, Initial residual = 0.000373021, Final residual = 2.84711e-16, No Iterations 2
diagonal:  Solving for rho, Initial residual = 0, Final residual = 0, No Iterations 0
time step continuity errors : sum local = 6.07161e-16, global = -5.41622e-17, cumulative = -2.09254e-15
PIMPLE: iteration 2
smoothSolver:  Solving for Ux, Initial residual = 4.24056e-05, Final residual = 9.26546e-18, No Iterations 1
smoothSolver:  Solving for e, Initial residual = 3.14235e-05, Final residual = 2.69301e-17, No Iterations 3
smoothSolver:  Solving for p, Initial residual = 7.12936e-06, Final residual = 1.62129e-17, No Iterations 2
diagonal:  Solving for rho, Initial residual = 0, Final residual = 0, No Iterations 0
time step continuity errors : sum local = 1.0041e-16, global = 2.47316e-18, cumulative = -2.09007e-15
ExecutionTime = 0.1 s  ClockTime = 0 s

Courant Number mean: 0.000809558 max: 0.0266718
Time = 0.00034

PIMPLE: iteration 1
diagonal:  Solving for rho, Initial residual = 0, Final residual = 0, No Iterations 0
smoothSolver:  Solving for Ux, Initial residual = 0.00540881, Final residual = 1.06661e-17, No Iterations 1
smoothSolver:  Solving for e, Initial residual = 0.000796049, Final residual = 3.89808e-17, No Iterations 3
smoothSolver:  Solving for p, Initial residual = 0.000371841, Final residual = 2.90021e-16, No Iterations 2
diagonal:  Solving for rho, Initial residual = 0, Final residual = 0, No Iterations 0
time step continuity errors : sum local = 5.93806e-16, global = -8.87865e-17, cumulative = -2.17886e-15
PIMPLE: iteration 2
smoothSolver:  Solving for Ux, Initial residual = 4.0187e-05, Final residual = 9.13974e-18, No Iterations 1
smoothSolver:  Solving for e, Initial residual = 3.28058e-05, Final residual = 2.79957e-17, No Iterations 3
smoothSolver:  Solving for p, Initial residual = 7.33153e-06, Final residual = 1.82583e-17, No Iterations 2
diagonal:  Solving for rho, Initial residual = 0, Final residual = 0, No Iterations 0
time step continuity errors : sum local = 1.17228e-16, global = -2.02799e-17, cumulative = -2.19914e-15
ExecutionTime = 0.1 s  ClockTime = 0 s

Courant Number mean: 0.000827563 max: 0.0265233
Time = 0.00035

PIMPLE: iteration 1
diagonal:  Solving for rho, Initial residual = 0, Final residual = 0, No Iterations 0
smoothSolver:  Solving for Ux, Initial residual = 0.00530874, Final residual = 1.06597e-17, No Iterations 1
smoothSolver:  Solving for e, Initial residual = 0.000800656, Final residual = 4.59638e-17, No Iterations 3
smoothSolver:  Solving for p, Initial residual = 0.000370445, Final residual = 2.83058e-16, No Iterations 2
diagonal:  Solving for rho, Initial residual = 0, Final residual = 0, No Iterations 0
time step continuity errors : sum local = 6.0271e-16, global = -9.71953e-17, cumulative = -2.29633e-15
PIMPLE: iteration 2
smoothSolver:  Solving for Ux, Initial residual = 3.80867e-05, Final residual = 7.26468e-18, No Iterations 1
smoothSolver:  Solving for e, Initial residual = 3.76223e-05, Final residual = 4.76855e-17, No Iterations 3
smoothSolver:  Solving for p, Initial residual = 7.92326e-06, Final residual = 1.45e-17, No Iterations 2
diagonal:  Solving for rho, Initial residual = 0, Final residual = 0, No Iterations 0
time step continuity errors : sum local = 1.05357e-16, global = -2.37424e-17, cumulative = -2.32007e-15
ExecutionTime = 0.11 s  ClockTime = 0 s

Courant Number mean: 0.000845902 max: 0.0263985
Time = 0.00036

PIMPLE: iteration 1
diagonal:  Solving for rho, Initial residual = 0, Final residual = 0, No Iterations 0
smoothSolver:  Solving for Ux, Initial residual = 0.00521154, Final residual = 6.8873e-18, No Iterations 1
smoothSolver:  Solving for e, Initial residual = 0.000809104, Final residual = 2.14392e-16, No Iterations 3
smoothSolver:  Solving for p, Initial residual = 0.000368805, Final residual = 2.80286e-16, No Iterations 2
diagonal:  Solving for rho, Initial residual = 0, Final residual = 0, No Iterations 0
time step continuity errors : sum local = 5.90344e-16, global = -7.39475e-17, cumulative = -2.39402e-15
PIMPLE: iteration 2
smoothSolver:  Solving for Ux, Initial residual = 3.611e-05, Final residual = 8.19126e-18, No Iterations 1
smoothSolver:  Solving for e, Initial residual = 3.52859e-05, Final residual = 4.34728e-17, No Iterations 3
smoothSolver:  Solving for p, Initial residual = 7.71069e-06, Final residual = 1.44875e-17, No Iterations 2
diagonal:  Solving for rho, Initial residual = 0, Final residual = 0, No Iterations 0
time step continuity errors : sum local = 1.00905e-16, global = -1.03873e-17, cumulative = -2.40441e-15
ExecutionTime = 0.11 s  ClockTime = 0 s

Courant Number mean: 0.000864575 max: 0.0262967
Time = 0.00037

PIMPLE: iteration 1
diagonal:  Solving for rho, Initial residual = 0, Final residual = 0, No Iterations 0
smoothSolver:  Solving for Ux, Initial residual = 0.00511722, Final residual = 8.6929e-18, No Iterations 1
smoothSolver:  Solving for e, Initial residual = 0.000817926, Final residual = 2.19179e-16, No Iterations 3
smoothSolver:  Solving for p, Initial residual = 0.000366955, Final residual = 2.80917e-16, No Iterations 2
diagonal:  Solving for rho, Initial residual = 0, Final residual = 0, No Iterations 0
time step continuity errors : sum local = 5.76989e-16, global = -7.04851e-17, cumulative = -2.47489e-15
PIMPLE: iteration 2
smoothSolver:  Solving for Ux, Initial residual = 3.42106e-05, Final residual = 9.87621e-18, No Iterations 1
smoothSolver:  Solving for e, Initial residual = 3.63274e-05, Final residual = 4.20151e-17, No Iterations 3
smoothSolver:  Solving for p, Initial residual = 7.85556e-06, Final residual = 1.58805e-17, No Iterations 2
diagonal:  Solving for rho, Initial residual = 0, Final residual = 0, No Iterations 0
time step continuity errors : sum local = 9.42275e-17, global = 8.16143e-18, cumulative = -2.46673e-15
ExecutionTime = 0.11 s  ClockTime = 0 s

Courant Number mean: 0.000883563 max: 0.0262181
Time = 0.00038

PIMPLE: iteration 1
diagonal:  Solving for rho, Initial residual = 0, Final residual = 0, No Iterations 0
smoothSolver:  Solving for Ux, Initial residual = 0.00502578, Final residual = 5.49609e-18, No Iterations 1
smoothSolver:  Solving for e, Initial residual = 0.000826932, Final residual = 2.31671e-16, No Iterations 3
smoothSolver:  Solving for p, Initial residual = 0.000364921, Final residual = 2.82046e-16, No Iterations 2
diagonal:  Solving for rho, Initial residual = 0, Final residual = 0, No Iterations 0
time step continuity errors : sum local = 5.84903e-16, global = -5.86139e-17, cumulative = -2.52535e-15
PIMPLE: iteration 2
smoothSolver:  Solving for Ux, Initial residual = 3.2402e-05, Final residual = 2.14382e-17, No Iterations 1
smoothSolver:  Solving for e, Initial residual = 3.7278e-05, Final residual = 5.33105e-17, No Iterations 3
smoothSolver:  Solving for p, Initial residual = 7.9833e-06, Final residual = 1.36485e-17, No Iterations 2
diagonal:  Solving for rho, Initial residual = 0, Final residual = 0, No Iterations 0
time step continuity errors : sum local = 9.94211e-17, global = -1.97853e-18, cumulative = -2.52732e-15
ExecutionTime = 0.11 s  ClockTime = 0 s

Courant Number mean: 0.000902861 max: 0.0261626
Time = 0.00039

PIMPLE: iteration 1
diagonal:  Solving for rho, Initial residual = 0, Final residual = 0, No Iterations 0
smoothSolver:  Solving for Ux, Initial residual = 0.00493717, Final residual = 2.77227e-17, No Iterations 1
smoothSolver:  Solving for e, Initial residual = 0.000836134, Final residual = 2.34591e-16, No Iterations 3
smoothSolver:  Solving for p, Initial residual = 0.000362715, Final residual = 2.81917e-16, No Iterations 2
diagonal:  Solving for rho, Initial residual = 0, Final residual = 0, No Iterations 0
time step continuity errors : sum local = 5.75752e-16, global = -6.727e-17, cumulative = -2.59459e-15
PIMPLE: iteration 2
smoothSolver:  Solving for Ux, Initial residual = 3.20246e-05, Final residual = 1.3576e-17, No Iterations 1
smoothSolver:  Solving for e, Initial residual = 3.81593e-05, Final residual = 5.05282e-17, No Iterations 3
smoothSolver:  Solving for p, Initial residual = 8.09648e-06, Final residual = 1.57604e-17, No Iterations 2
diagonal:  Solving for rho, Initial residual = 0, Final residual = 0, No Iterations 0
time step continuity errors : sum local = 9.27436e-17, global = 2.47316e-19, cumulative = -2.59435e-15
ExecutionTime = 0.11 s  ClockTime = 0 s

Courant Number mean: 0.000922472 max: 0.0261302
Time = 0.0004

PIMPLE: iteration 1
diagonal:  Solving for rho, Initial residual = 0, Final residual = 0, No Iterations 0
smoothSolver:  Solving for Ux, Initial residual = 0.00485135, Final residual = 1.5825e-17, No Iterations 1
smoothSolver:  Solving for e, Initial residual = 0.000850569, Final residual = 2.57454e-16, No Iterations 3
smoothSolver:  Solving for p, Initial residual = 0.000360317, Final residual = 2.81228e-16, No Iterations 2
diagonal:  Solving for rho, Initial residual = 0, Final residual = 0, No Iterations 0
time step continuity errors : sum local = 5.88118e-16, global = -6.82593e-17, cumulative = -2.66261e-15
PIMPLE: iteration 2
smoothSolver:  Solving for Ux, Initial residual = 3.22289e-05, Final residual = 1.63436e-17, No Iterations 1
smoothSolver:  Solving for e, Initial residual = 3.92013e-05, Final residual = 6.18847e-17, No Iterations 3
smoothSolver:  Solving for p, Initial residual = 8.23293e-06, Final residual = 1.70841e-17, No Iterations 2
diagonal:  Solving for rho, Initial residual = 0, Final residual = 0, No Iterations 0
time step continuity errors : sum local = 1.04862e-16, global = -1.09556e-31, cumulative = -2.66261e-15
ExecutionTime = 0.11 s  ClockTime = 0 s

Courant Number mean: 0.000942402 max: 0.0261211
Time = 0.00041

PIMPLE: iteration 1
diagonal:  Solving for rho, Initial residual = 0, Final residual = 0, No Iterations 0
smoothSolver:  Solving for Ux, Initial residual = 0.00476854, Final residual = 1.40202e-17, No Iterations 1
smoothSolver:  Solving for e, Initial residual = 0.000866366, Final residual = 2.93943e-16, No Iterations 3
smoothSolver:  Solving for p, Initial residual = 0.000357754, Final residual = 2.78552e-16, No Iterations 2
diagonal:  Solving for rho, Initial residual = 0, Final residual = 0, No Iterations 0
time step continuity errors : sum local = 5.7501e-16, global = -6.60334e-17, cumulative = -2.72864e-15
PIMPLE: iteration 2
smoothSolver:  Solving for Ux, Initial residual = 3.24657e-05, Final residual = 1.28247e-17, No Iterations 1
smoothSolver:  Solving for e, Initial residual = 4.00742e-05, Final residual = 5.80307e-17, No Iterations 3
smoothSolver:  Solving for p, Initial residual = 8.34905e-06, Final residual = 1.53541e-17, No Iterations 2
diagonal:  Solving for rho, Initial residual = 0, Final residual = 0, No Iterations 0
time step continuity errors : sum local = 1.09066e-16, global = -2.47316e-19, cumulative = -2.72889e-15
ExecutionTime = 0.11 s  ClockTime = 0 s

Courant Number mean: 0.000962665 max: 0.0261355
Time = 0.00042

PIMPLE: iteration 1
diagonal:  Solving for rho, Initial residual = 0, Final residual = 0, No Iterations 0
smoothSolver:  Solving for Ux, Initial residual = 0.00468872, Final residual = 2.11069e-17, No Iterations 1
smoothSolver:  Solving for e, Initial residual = 0.000882521, Final residual = 3.39581e-16, No Iterations 3
smoothSolver:  Solving for p, Initial residual = 0.000355039, Final residual = 2.79074e-16, No Iterations 2
diagonal:  Solving for rho, Initial residual = 0, Final residual = 0, No Iterations 0
time step continuity errors : sum local = 5.73526e-16, global = -4.17964e-17, cumulative = -2.77068e-15
PIMPLE: iteration 2
smoothSolver:  Solving for Ux, Initial residual = 3.27298e-05, Final residual = 1.91314e-17, No Iterations 1
smoothSolver:  Solving for e, Initial residual = 4.09363e-05, Final residual = 7.15273e-17, No Iterations 3
smoothSolver:  Solving for p, Initial residual = 8.45897e-06, Final residual = 1.59059e-17, No Iterations 2
diagonal:  Solving for rho, Initial residual = 0, Final residual = 0, No Iterations 0
time step continuity errors : sum local = 1.05851e-16, global = -4.45169e-18, cumulative = -2.77513e-15
ExecutionTime = 0.12 s  ClockTime = 0 s

Courant Number mean: 0.000983282 max: 0.0265642
Time = 0.00043

PIMPLE: iteration 1
diagonal:  Solving for rho, Initial residual = 0, Final residual = 0, No Iterations 0
smoothSolver:  Solving for Ux, Initial residual = 0.00461175, Final residual = 1.60607e-17, No Iterations 1
smoothSolver:  Solving for e, Initial residual = 0.000899085, Final residual = 3.98529e-16, No Iterations 3
smoothSolver:  Solving for p, Initial residual = 0.000352139, Final residual = 2.7441e-16, No Iterations 2
diagonal:  Solving for rho, Initial residual = 0, Final residual = 0, No Iterations 0
time step continuity errors : sum local = 5.82182e-16, global = -8.26036e-17, cumulative = -2.85774e-15
PIMPLE: iteration 2
smoothSolver:  Solving for Ux, Initial residual = 3.30256e-05, Final residual = 1.37793e-17, No Iterations 1
smoothSolver:  Solving for e, Initial residual = 4.18113e-05, Final residual = 7.62148e-17, No Iterations 3
smoothSolver:  Solving for p, Initial residual = 8.56381e-06, Final residual = 1.66884e-17, No Iterations 2
diagonal:  Solving for rho, Initial residual = 0, Final residual = 0, No Iterations 0
time step continuity errors : sum local = 1.08324e-16, global = 8.90338e-18, cumulative = -2.84884e-15
ExecutionTime = 0.12 s  ClockTime = 0 s

Courant Number mean: 0.00100428 max: 0.0270034
Time = 0.00044

PIMPLE: iteration 1
diagonal:  Solving for rho, Initial residual = 0, Final residual = 0, No Iterations 0
smoothSolver:  Solving for Ux, Initial residual = 0.00453751, Final residual = 1.12506e-17, No Iterations 1
smoothSolver:  Solving for e, Initial residual = 0.000916073, Final residual = 4.61599e-16, No Iterations 3
smoothSolver:  Solving for p, Initial residual = 0.000349045, Final residual = 2.75293e-16, No Iterations 2
diagonal:  Solving for rho, Initial residual = 0, Final residual = 0, No Iterations 0
time step continuity errors : sum local = 5.78473e-16, global = -6.45495e-17, cumulative = -2.91338e-15
PIMPLE: iteration 2
smoothSolver:  Solving for Ux, Initial residual = 3.33626e-05, Final residual = 2.04756e-17, No Iterations 1
smoothSolver:  Solving for e, Initial residual = 4.27294e-05, Final residual = 8.84414e-17, No Iterations 3
smoothSolver:  Solving for p, Initial residual = 8.66843e-06, Final residual = 1.69251e-17, No Iterations 2
diagonal:  Solving for rho, Initial residual = 0, Final residual = 0, No Iterations 0
time step continuity errors : sum local = 1.06841e-16, global = -2.22585e-17, cumulative = -2.93564e-15
ExecutionTime = 0.12 s  ClockTime = 0 s

Courant Number mean: 0.00102571 max: 0.0274322
Time = 0.00045

PIMPLE: iteration 1
diagonal:  Solving for rho, Initial residual = 0, Final residual = 0, No Iterations 0
smoothSolver:  Solving for Ux, Initial residual = 0.00446587, Final residual = 9.35827e-18, No Iterations 1
smoothSolver:  Solving for e, Initial residual = 0.000933529, Final residual = 5.43606e-16, No Iterations 3
smoothSolver:  Solving for p, Initial residual = 0.000345801, Final residual = 2.74681e-16, No Iterations 2
diagonal:  Solving for rho, Initial residual = 0, Final residual = 0, No Iterations 0
time step continuity errors : sum local = 5.7501e-16, global = -6.40549e-17, cumulative = -2.9997e-15
PIMPLE: iteration 2
smoothSolver:  Solving for Ux, Initial residual = 3.37436e-05, Final residual = 2.64784e-17, No Iterations 1
smoothSolver:  Solving for e, Initial residual = 4.3685e-05, Final residual = 9.68957e-17, No Iterations 3
smoothSolver:  Solving for p, Initial residual = 8.77358e-06, Final residual = 1.72338e-17, No Iterations 2
diagonal:  Solving for rho, Initial residual = 0, Final residual = 0, No Iterations 0
time step continuity errors : sum local = 1.08324e-16, global = -2.57209e-17, cumulative = -3.02542e-15
ExecutionTime = 0.12 s  ClockTime = 0 s

Courant Number mean: 0.0010476 max: 0.0278523
Time = 0.00046

PIMPLE: iteration 1
diagonal:  Solving for rho, Initial residual = 0, Final residual = 0, No Iterations 0
smoothSolver:  Solving for Ux, Initial residual = 0.00439667, Final residual = 1.63376e-17, No Iterations 1
smoothSolver:  Solving for e, Initial residual = 0.000951487, Final residual = 6.3798e-16, No Iterations 3
smoothSolver:  Solving for p, Initial residual = 0.000342431, Final residual = 2.7194e-16, No Iterations 2
diagonal:  Solving for rho, Initial residual = 0, Final residual = 0, No Iterations 0
time step continuity errors : sum local = 5.74021e-16, global = -4.3775e-17, cumulative = -3.06919e-15
PIMPLE: iteration 2
smoothSolver:  Solving for Ux, Initial residual = 3.39649e-05, Final residual = 9.76839e-18, No Iterations 1
smoothSolver:  Solving for e, Initial residual = 4.39751e-05, Final residual = 1.0984e-16, No Iterations 3
smoothSolver:  Solving for p, Initial residual = 8.79658e-06, Final residual = 1.44312e-17, No Iterations 2
diagonal:  Solving for rho, Initial residual = 0, Final residual = 0, No Iterations 0
time step continuity errors : sum local = 9.00231e-17, global = 1.97853e-18, cumulative = -3.06722e-15
ExecutionTime = 0.12 s  ClockTime = 0 s

Courant Number mean: 0.00106972 max: 0.0282492
Time = 0.00047

PIMPLE: iteration 1
diagonal:  Solving for rho, Initial residual = 0, Final residual = 0, No Iterations 0
smoothSolver:  Solving for Ux, Initial residual = 0.0043299, Final residual = 8.85797e-18, No Iterations 1
smoothSolver:  Solving for e, Initial residual = 0.000969275, Final residual = 7.39021e-16, No Iterations 3
smoothSolver:  Solving for p, Initial residual = 0.000348083, Final residual = 2.77486e-16, No Iterations 2
diagonal:  Solving for rho, Initial residual = 0, Final residual = 0, No Iterations 0
time step continuity errors : sum local = 5.6487e-16, global = -4.15491e-17, cumulative = -3.10876e-15
PIMPLE: iteration 2
smoothSolver:  Solving for Ux, Initial residual = 3.38933e-05, Final residual = 9.40148e-18, No Iterations 1
smoothSolver:  Solving for e, Initial residual = 4.33398e-05, Final residual = 1.16808e-16, No Iterations 3
smoothSolver:  Solving for p, Initial residual = 8.70154e-06, Final residual = 1.74233e-17, No Iterations 2
diagonal:  Solving for rho, Initial residual = 0, Final residual = 0, No Iterations 0
time step continuity errors : sum local = 1.12034e-16, global = -2.10219e-17, cumulative = -3.12979e-15
ExecutionTime = 0.12 s  ClockTime = 0 s

Courant Number mean: 0.00109178 max: 0.028605
Time = 0.00048

PIMPLE: iteration 1
diagonal:  Solving for rho, Initial residual = 0, Final residual = 0, No Iterations 0
smoothSolver:  Solving for Ux, Initial residual = 0.00426559, Final residual = 1.6357e-17, No Iterations 1
smoothSolver:  Solving for e, Initial residual = 0.000985964, Final residual = 8.41228e-16, No Iterations 3
smoothSolver:  Solving for p, Initial residual = 0.000356923, Final residual = 2.81113e-16, No Iterations 2
diagonal:  Solving for rho, Initial residual = 0, Final residual = 0, No Iterations 0
time step continuity errors : sum local = 5.90344e-16, global = -5.36676e-17, cumulative = -3.18345e-15
PIMPLE: iteration 2
smoothSolver:  Solving for Ux, Initial residual = 3.35103e-05, Final residual = 9.52804e-18, No Iterations 1
smoothSolver:  Solving for e, Initial residual = 4.18825e-05, Final residual = 1.20026e-16, No Iterations 3
smoothSolver:  Solving for p, Initial residual = 8.51151e-06, Final residual = 1.49145e-17, No Iterations 2
diagonal:  Solving for rho, Initial residual = 0, Final residual = 0, No Iterations 0
time step continuity errors : sum local = 8.95285e-17, global = -1.73121e-17, cumulative = -3.20077e-15
ExecutionTime = 0.13 s  ClockTime = 0 s

Courant Number mean: 0.00111353 max: 0.0289072
Time = 0.00049

PIMPLE: iteration 1
diagonal:  Solving for rho, Initial residual = 0, Final residual = 0, No Iterations 0
smoothSolver:  Solving for Ux, Initial residual = 0.00420375, Final residual = 1.14037e-17, No Iterations 1
smoothSolver:  Solving for e, Initial residual = 0.00100075, Final residual = 9.32363e-16, No Iterations 3
smoothSolver:  Solving for p, Initial residual = 0.000365003, Final residual = 2.89498e-16, No Iterations 2
diagonal:  Solving for rho, Initial residual = 0, Final residual = 0, No Iterations 0
time step continuity errors : sum local = 5.82677e-16, global = -4.79793e-17, cumulative = -3.24875e-15
PIMPLE: iteration 2
smoothSolver:  Solving for Ux, Initial residual = 3.28551e-05, Final residual = 9.30191e-18, No Iterations 1
smoothSolver:  Solving for e, Initial residual = 3.98028e-05, Final residual = 1.08943e-16, No Iterations 3
smoothSolver:  Solving for p, Initial residual = 8.24916e-06, Final residual = 1.76762e-17, No Iterations 2
diagonal:  Solving for rho, Initial residual = 0, Final residual = 0, No Iterations 0
time step continuity errors : sum local = 1.05109e-16, global = -7.6668e-18, cumulative = -3.25641e-15
ExecutionTime = 0.13 s  ClockTime = 0 s

Courant Number mean: 0.00113483 max: 0.0291491
Time = 0.0005

PIMPLE: iteration 1
diagonal:  Solving for rho, Initial residual = 0, Final residual = 0, No Iterations 0
smoothSolver:  Solving for Ux, Initial residual = 0.00414429, Final residual = 1.30846e-17, No Iterations 1
smoothSolver:  Solving for e, Initial residual = 0.00101302, Final residual = 4.51322e-17, No Iterations 4
smoothSolver:  Solving for p, Initial residual = 0.000372146, Final residual = 2.92236e-16, No Iterations 2
diagonal:  Solving for rho, Initial residual = 0, Final residual = 0, No Iterations 0
time step continuity errors : sum local = 5.95043e-16, global = -3.56135e-17, cumulative = -3.29203e-15
PIMPLE: iteration 2
smoothSolver:  Solving for Ux, Initial residual = 3.19994e-05, Final residual = 1.92398e-17, No Iterations 1
smoothSolver:  Solving for e, Initial residual = 3.73414e-05, Final residual = 1.02623e-16, No Iterations 3
smoothSolver:  Solving for p, Initial residual = 8.04265e-06, Final residual = 1.74411e-17, No Iterations 2
diagonal:  Solving for rho, Initial residual = 0, Final residual = 0, No Iterations 0
time step continuity errors : sum local = 1.01894e-16, global = 9.89265e-19, cumulative = -3.29104e-15
ExecutionTime = 0.13 s  ClockTime = 0 s

Courant Number mean: 0.0011556 max: 0.0293308
Time = 0.00051

PIMPLE: iteration 1
diagonal:  Solving for rho, Initial residual = 0, Final residual = 0, No Iterations 0
smoothSolver:  Solving for Ux, Initial residual = 0.00408704, Final residual = 1.44571e-17, No Iterations 1
smoothSolver:  Solving for e, Initial residual = 0.00102242, Final residual = 4.02654e-17, No Iterations 4
smoothSolver:  Solving for p, Initial residual = 0.000378274, Final residual = 2.97402e-16, No Iterations 2
diagonal:  Solving for rho, Initial residual = 0, Final residual = 0, No Iterations 0
time step continuity errors : sum local = 6.03699e-16, global = -5.51515e-17, cumulative = -3.34619e-15
PIMPLE: iteration 2
smoothSolver:  Solving for Ux, Initial residual = 3.10235e-05, Final residual = 6.23129e-18, No Iterations 1
smoothSolver:  Solving for e, Initial residual = 3.47209e-05, Final residual = 8.29902e-17, No Iterations 3
smoothSolver:  Solving for p, Initial residual = 8.17043e-06, Final residual = 1.67466e-17, No Iterations 2
diagonal:  Solving for rho, Initial residual = 0, Final residual = 0, No Iterations 0
time step continuity errors : sum local = 1.06841e-16, global = 1.08819e-17, cumulative = -3.33531e-15
ExecutionTime = 0.13 s  ClockTime = 0 s

Courant Number mean: 0.00117586 max: 0.0294567
Time = 0.00052

PIMPLE: iteration 1
diagonal:  Solving for rho, Initial residual = 0, Final residual = 0, No Iterations 0
smoothSolver:  Solving for Ux, Initial residual = 0.00403175, Final residual = 2.06858e-17, No Iterations 1
smoothSolver:  Solving for e, Initial residual = 0.00102881, Final residual = 4.03667e-17, No Iterations 4
smoothSolver:  Solving for p, Initial residual = 0.000383377, Final residual = 2.98471e-16, No Iterations 2
diagonal:  Solving for rho, Initial residual = 0, Final residual = 0, No Iterations 0
time step continuity errors : sum local = 6.07903e-16, global = -4.94632e-17, cumulative = -3.38477e-15
PIMPLE: iteration 2
smoothSolver:  Solving for Ux, Initial residual = 2.99993e-05, Final residual = 1.47356e-17, No Iterations 1
smoothSolver:  Solving for e, Initial residual = 3.21144e-05, Final residual = 6.54316e-17, No Iterations 3
smoothSolver:  Solving for p, Initial residual = 8.26816e-06, Final residual = 1.52459e-17, No Iterations 2
diagonal:  Solving for rho, Initial residual = 0, Final residual = 0, No Iterations 0
time step continuity errors : sum local = 9.27436e-17, global = -7.17217e-18, cumulative = -3.39194e-15
ExecutionTime = 0.13 s  ClockTime = 0 s

Courant Number mean: 0.00119568 max: 0.0295342
Time = 0.00053

PIMPLE: iteration 1
diagonal:  Solving for rho, Initial residual = 0, Final residual = 0, No Iterations 0
smoothSolver:  Solving for Ux, Initial residual = 0.00397771, Final residual = 1.28982e-17, No Iterations 1
smoothSolver:  Solving for e, Initial residual = 0.00103224, Final residual = 9.97004e-16, No Iterations 3
smoothSolver:  Solving for p, Initial residual = 0.000387494, Final residual = 2.99467e-16, No Iterations 2
diagonal:  Solving for rho, Initial residual = 0, Final residual = 0, No Iterations 0
time step continuity errors : sum local = 6.31398e-16, global = -5.36676e-17, cumulative = -3.44561e-15
PIMPLE: iteration 2
smoothSolver:  Solving for Ux, Initial residual = 2.89752e-05, Final residual = 1.0987e-17, No Iterations 1
smoothSolver:  Solving for e, Initial residual = 2.96365e-05, Final residual = 4.853e-17, No Iterations 3
smoothSolver:  Solving for p, Initial residual = 8.33917e-06, Final residual = 1.76528e-17, No Iterations 2
diagonal:  Solving for rho, Initial residual = 0, Final residual = 0, No Iterations 0
time step continuity errors : sum local = 1.0041e-16, global = 6.92485e-18, cumulative = -3.43868e-15
ExecutionTime = 0.13 s  ClockTime = 0 s

Courant Number mean: 0.00121515 max: 0.0295721
Time = 0.00054

PIMPLE: iteration 1
diagonal:  Solving for rho, Initial residual = 0, Final residual = 0, No Iterations 0
smoothSolver:  Solving for Ux, Initial residual = 0.00392451, Final residual = 9.22726e-18, No Iterations 1
smoothSolver:  Solving for e, Initial residual = 0.00103215, Final residual = 9.15845e-16, No Iterations 3
smoothSolver:  Solving for p, Initial residual = 0.000390691, Final residual = 3.01554e-16, No Iterations 2
diagonal:  Solving for rho, Initial residual = 0, Final residual = 0, No Iterations 0
time step continuity errors : sum local = 6.16312e-16, global = -2.67101e-17, cumulative = -3.46539e-15
PIMPLE: iteration 2
smoothSolver:  Solving for Ux, Initial residual = 2.79875e-05, Final residual = 8.40478e-18, No Iterations 1
smoothSolver:  Solving for e, Initial residual = 2.7313e-05, Final residual = 2.37081e-17, No Iterations 3
smoothSolver:  Solving for p, Initial residual = 8.38684e-06, Final residual = 1.45858e-17, No Iterations 2
diagonal:  Solving for rho, Initial residual = 0, Final residual = 0, No Iterations 0
time step continuity errors : sum local = 1.07335e-16, global = 1.13765e-17, cumulative = -3.45402e-15
ExecutionTime = 0.13 s  ClockTime = 0 s

Courant Number mean: 0.00123435 max: 0.029579
Time = 0.00055

PIMPLE: iteration 1
diagonal:  Solving for rho, Initial residual = 0, Final residual = 0, No Iterations 0
smoothSolver:  Solving for Ux, Initial residual = 0.00387211, Final residual = 7.23094e-18, No Iterations 1
smoothSolver:  Solving for e, Initial residual = 0.00102878, Final residual = 8.01579e-16, No Iterations 3
smoothSolver:  Solving for p, Initial residual = 0.000393045, Final residual = 3.03614e-16, No Iterations 2
diagonal:  Solving for rho, Initial residual = 0, Final residual = 0, No Iterations 0
time step continuity errors : sum local = 6.33377e-16, global = -3.4377e-17, cumulative = -3.48839e-15
PIMPLE: iteration 2
smoothSolver:  Solving for Ux, Initial residual = 2.70559e-05, Final residual = 1.61066e-17, No Iterations 1
smoothSolver:  Solving for e, Initial residual = 2.64982e-05, Final residual = 3.53191e-17, No Iterations 3
smoothSolver:  Solving for p, Initial residual = 8.41399e-06, Final residual = 1.70664e-17, No Iterations 2
diagonal:  Solving for rho, Initial residual = 0, Final residual = 0, No Iterations 0
time step continuity errors : sum local = 1.04615e-16, global = 9.64533e-18, cumulative = -3.47875e-15
ExecutionTime = 0.14 s  ClockTime = 0 s

Courant Number mean: 0.00125338 max: 0.0295628
Time = 0.00056

PIMPLE: iteration 1
diagonal:  Solving for rho, Initial residual = 0, Final residual = 0, No Iterations 0
smoothSolver:  Solving for Ux, Initial residual = 0.00382037, Final residual = 1.11219e-17, No Iterations 1
smoothSolver:  Solving for e, Initial residual = 0.00102309, Final residual = 6.70596e-16, No Iterations 3
smoothSolver:  Solving for p, Initial residual = 0.000394636, Final residual = 3.04189e-16, No Iterations 2
diagonal:  Solving for rho, Initial residual = 0, Final residual = 0, No Iterations 0
time step continuity errors : sum local = 6.33624e-16, global = -2.32477e-17, cumulative = -3.502e-15
PIMPLE: iteration 2
smoothSolver:  Solving for Ux, Initial residual = 2.61794e-05, Final residual = 1.2885e-17, No Iterations 1
smoothSolver:  Solving for e, Initial residual = 4.40887e-05, Final residual = 2.03637e-16, No Iterations 3
smoothSolver:  Solving for p, Initial residual = 1.02937e-05, Final residual = 1.85115e-17, No Iterations 2
diagonal:  Solving for rho, Initial residual = 0, Final residual = 0, No Iterations 0
time step continuity errors : sum local = 1.244e-16, global = -4.20438e-18, cumulative = -3.5062e-15
ExecutionTime = 0.14 s  ClockTime = 0 s

Courant Number mean: 0.00127232 max: 0.0295325
Time = 0.00057

PIMPLE: iteration 1
diagonal:  Solving for rho, Initial residual = 0, Final residual = 0, No Iterations 0
smoothSolver:  Solving for Ux, Initial residual = 0.00376852, Final residual = 1.39855e-17, No Iterations 1
smoothSolver:  Solving for e, Initial residual = 0.00101511, Final residual = 3.78205e-16, No Iterations 3
smoothSolver:  Solving for p, Initial residual = 0.00039554, Final residual = 3.08837e-16, No Iterations 2
diagonal:  Solving for rho, Initial residual = 0, Final residual = 0, No Iterations 0
time step continuity errors : sum local = 6.28678e-16, global = -4.55062e-17, cumulative = -3.55171e-15
PIMPLE: iteration 2
smoothSolver:  Solving for Ux, Initial residual = 2.53649e-05, Final residual = 1.56789e-17, No Iterations 1
smoothSolver:  Solving for e, Initial residual = 4.68593e-05, Final residual = 2.32814e-16, No Iterations 3
smoothSolver:  Solving for p, Initial residual = 1.05413e-05, Final residual = 1.86216e-17, No Iterations 2
diagonal:  Solving for rho, Initial residual = 0, Final residual = 0, No Iterations 0
time step continuity errors : sum local = 1.01647e-16, global = -1.31078e-17, cumulative = -3.56482e-15
ExecutionTime = 0.14 s  ClockTime = 0 s

Courant Number mean: 0.00129124 max: 0.0294912
Time = 0.00058

PIMPLE: iteration 1
diagonal:  Solving for rho, Initial residual = 0, Final residual = 0, No Iterations 0
smoothSolver:  Solving for Ux, Initial residual = 0.00371996, Final residual = 1.42451e-17, No Iterations 1
smoothSolver:  Solving for e, Initial residual = 0.00100494, Final residual = 6.7689e-17, No Iterations 3
smoothSolver:  Solving for p, Initial residual = 0.000395769, Final residual = 3.00962e-16, No Iterations 2
diagonal:  Solving for rho, Initial residual = 0, Final residual = 0, No Iterations 0
time step continuity errors : sum local = 6.09387e-16, global = -1.63229e-17, cumulative = -3.58114e-15
PIMPLE: iteration 2
smoothSolver:  Solving for Ux, Initial residual = 2.45795e-05, Final residual = 1.26988e-17, No Iterations 1
smoothSolver:  Solving for e, Initial residual = 4.71533e-05, Final residual = 2.44174e-16, No Iterations 3
smoothSolver:  Solving for p, Initial residual = 1.04382e-05, Final residual = 2.23114e-17, No Iterations 2
diagonal:  Solving for rho, Initial residual = 0, Final residual = 0, No Iterations 0
time step continuity errors : sum local = 1.09808e-16, global = -6.92485e-18, cumulative = -3.58806e-15
ExecutionTime = 0.14 s  ClockTime = 0 s

Courant Number mean: 0.00131018 max: 0.0294431
Time = 0.00059

PIMPLE: iteration 1
diagonal:  Solving for rho, Initial residual = 0, Final residual = 0, No Iterations 0
smoothSolver:  Solving for Ux, Initial residual = 0.00373128, Final residual = 1.1732e-17, No Iterations 1
smoothSolver:  Solving for e, Initial residual = 0.00101825, Final residual = 3.34803e-16, No Iterations 3
smoothSolver:  Solving for p, Initial residual = 0.000395377, Final residual = 3.06114e-16, No Iterations 2
diagonal:  Solving for rho, Initial residual = 0, Final residual = 0, No Iterations 0
time step continuity errors : sum local = 6.0914e-16, global = -8.65607e-18, cumulative = -3.59672e-15
PIMPLE: iteration 2
smoothSolver:  Solving for Ux, Initial residual = 2.38251e-05, Final residual = 9.89668e-18, No Iterations 1
smoothSolver:  Solving for e, Initial residual = 7.04919e-05, Final residual = 3.9815e-16, No Iterations 3
smoothSolver:  Solving for p, Initial residual = 1.0703e-05, Final residual = 2.01703e-17, No Iterations 2
diagonal:  Solving for rho, Initial residual = 0, Final residual = 0, No Iterations 0
time step continuity errors : sum local = 1.14507e-16, global = -5.68827e-18, cumulative = -3.60241e-15
ExecutionTime = 0.14 s  ClockTime = 0 s

Courant Number mean: 0.00132917 max: 0.0293939
Time = 0.0006

PIMPLE: iteration 1
diagonal:  Solving for rho, Initial residual = 0, Final residual = 0, No Iterations 0
smoothSolver:  Solving for Ux, Initial residual = 0.00373677, Final residual = 1.42901e-17, No Iterations 1
smoothSolver:  Solving for e, Initial residual = 0.00103987, Final residual = 4.0474e-17, No Iterations 4
smoothSolver:  Solving for p, Initial residual = 0.000391894, Final residual = 3.11325e-16, No Iterations 2
diagonal:  Solving for rho, Initial residual = 0, Final residual = 0, No Iterations 0
time step continuity errors : sum local = 6.15817e-16, global = -2.86887e-17, cumulative = -3.6311e-15
PIMPLE: iteration 2
smoothSolver:  Solving for Ux, Initial residual = 2.30638e-05, Final residual = 1.68399e-17, No Iterations 1
smoothSolver:  Solving for e, Initial residual = 6.89062e-05, Final residual = 4.42212e-16, No Iterations 3
smoothSolver:  Solving for p, Initial residual = 1.07107e-05, Final residual = 1.56038e-17, No Iterations 2
diagonal:  Solving for rho, Initial residual = 0, Final residual = 0, No Iterations 0
time step continuity errors : sum local = 1.01894e-16, global = 7.41949e-18, cumulative = -3.62368e-15
ExecutionTime = 0.14 s  ClockTime = 0 s

Courant Number mean: 0.00134822 max: 0.0293437
Time = 0.00061

PIMPLE: iteration 1
diagonal:  Solving for rho, Initial residual = 0, Final residual = 0, No Iterations 0
smoothSolver:  Solving for Ux, Initial residual = 0.00373674, Final residual = 1.59242e-17, No Iterations 1
smoothSolver:  Solving for e, Initial residual = 0.00106399, Final residual = 4.49141e-17, No Iterations 4
smoothSolver:  Solving for p, Initial residual = 0.000387899, Final residual = 3.03685e-16, No Iterations 2
diagonal:  Solving for rho, Initial residual = 0, Final residual = 0, No Iterations 0
time step continuity errors : sum local = 6.28925e-16, global = -7.17217e-18, cumulative = -3.63085e-15
PIMPLE: iteration 2
smoothSolver:  Solving for Ux, Initial residual = 2.23272e-05, Final residual = 1.7296e-17, No Iterations 1
smoothSolver:  Solving for e, Initial residual = 6.54413e-05, Final residual = 3.80047e-16, No Iterations 3
smoothSolver:  Solving for p, Initial residual = 1.04085e-05, Final residual = 2.10101e-17, No Iterations 2
diagonal:  Solving for rho, Initial residual = 0, Final residual = 0, No Iterations 0
time step continuity errors : sum local = 1.01152e-16, global = -7.17217e-18, cumulative = -3.63802e-15
ExecutionTime = 0.14 s  ClockTime = 0 s

Courant Number mean: 0.00136735 max: 0.0292952
Time = 0.00062

PIMPLE: iteration 1
diagonal:  Solving for rho, Initial residual = 0, Final residual = 0, No Iterations 0
smoothSolver:  Solving for Ux, Initial residual = 0.00373145, Final residual = 1.71459e-17, No Iterations 1
smoothSolver:  Solving for e, Initial residual = 0.00108549, Final residual = 4.34346e-17, No Iterations 4
smoothSolver:  Solving for p, Initial residual = 0.000383666, Final residual = 3.02841e-16, No Iterations 2
diagonal:  Solving for rho, Initial residual = 0, Final residual = 0, No Iterations 0
time step continuity errors : sum local = 6.30409e-16, global = -1.45917e-17, cumulative = -3.65261e-15
PIMPLE: iteration 2
smoothSolver:  Solving for Ux, Initial residual = 2.17392e-05, Final residual = 9.37139e-18, No Iterations 1
smoothSolver:  Solving for e, Initial residual = 6.20791e-05, Final residual = 3.14898e-16, No Iterations 3
smoothSolver:  Solving for p, Initial residual = 1.00962e-05, Final residual = 1.82964e-17, No Iterations 2
diagonal:  Solving for rho, Initial residual = 0, Final residual = 0, No Iterations 0
time step continuity errors : sum local = 1.08077e-16, global = 1.014e-17, cumulative = -3.64247e-15
ExecutionTime = 0.15 s  ClockTime = 0 s

Courant Number mean: 0.00138658 max: 0.0292503
Time = 0.00063

PIMPLE: iteration 1
diagonal:  Solving for rho, Initial residual = 0, Final residual = 0, No Iterations 0
[...]
smoothSolver:  Solving for Ux, Initial residual = 0.000416373, Final residual = 3.20712e-17, No Iterations 1
smoothSolver:  Solving for e, Initial residual = 0.000809557, Final residual = 4.36626e-17, No Iterations 4
smoothSolver:  Solving for p, Initial residual = 0.000414845, Final residual = 3.62248e-16, No Iterations 2
diagonal:  Solving for rho, Initial residual = 0, Final residual = 0, No Iterations 0
time step continuity errors : sum local = 3.63666e-16, global = -3.13712e-16, cumulative = 4.06306e-15
PIMPLE: iteration 2
smoothSolver:  Solving for Ux, Initial residual = 4.04792e-07, Final residual = 4.28957e-17, No Iterations 1
smoothSolver:  Solving for e, Initial residual = 7.8222e-06, Final residual = 4.38808e-17, No Iterations 3
smoothSolver:  Solving for p, Initial residual = 2.64539e-06, Final residual = 6.76917e-17, No Iterations 2
diagonal:  Solving for rho, Initial residual = 0, Final residual = 0, No Iterations 0
time step continuity errors : sum local = 1.63849e-16, global = -3.5967e-17, cumulative = 4.0271e-15
ExecutionTime = 1.71 s  ClockTime = 2 s

Courant Number mean: 0.0202492 max: 0.0351934
Time = 0.00986

PIMPLE: iteration 1
diagonal:  Solving for rho, Initial residual = 0, Final residual = 0, No Iterations 0
smoothSolver:  Solving for Ux, Initial residual = 0.000415062, Final residual = 3.69081e-17, No Iterations 1
smoothSolver:  Solving for e, Initial residual = 0.000811241, Final residual = 3.63909e-17, No Iterations 4
smoothSolver:  Solving for p, Initial residual = 0.000413314, Final residual = 3.42183e-16, No Iterations 2
diagonal:  Solving for rho, Initial residual = 0, Final residual = 0, No Iterations 0
time step continuity errors : sum local = 3.4574e-16, global = -2.59804e-16, cumulative = 3.76729e-15
PIMPLE: iteration 2
smoothSolver:  Solving for Ux, Initial residual = 4.00659e-07, Final residual = 3.21593e-17, No Iterations 1
smoothSolver:  Solving for e, Initial residual = 8.02904e-06, Final residual = 4.5057e-17, No Iterations 3
smoothSolver:  Solving for p, Initial residual = 2.54121e-06, Final residual = 7.9256e-17, No Iterations 2
diagonal:  Solving for rho, Initial residual = 0, Final residual = 0, No Iterations 0
time step continuity errors : sum local = 1.64876e-16, global = -1.09917e-17, cumulative = 3.7563e-15
ExecutionTime = 1.71 s  ClockTime = 2 s

Courant Number mean: 0.0202533 max: 0.0350023
Time = 0.00987

PIMPLE: iteration 1
diagonal:  Solving for rho, Initial residual = 0, Final residual = 0, No Iterations 0
smoothSolver:  Solving for Ux, Initial residual = 0.00041366, Final residual = 3.90123e-17, No Iterations 1
smoothSolver:  Solving for e, Initial residual = 0.000812902, Final residual = 3.81129e-17, No Iterations 4
smoothSolver:  Solving for p, Initial residual = 0.000411756, Final residual = 3.31686e-16, No Iterations 2
diagonal:  Solving for rho, Initial residual = 0, Final residual = 0, No Iterations 0
time step continuity errors : sum local = 3.2281e-16, global = -2.58847e-16, cumulative = 3.49745e-15
PIMPLE: iteration 2
smoothSolver:  Solving for Ux, Initial residual = 3.96566e-07, Final residual = 3.37079e-17, No Iterations 1
smoothSolver:  Solving for e, Initial residual = 8.37991e-06, Final residual = 4.43822e-17, No Iterations 3
smoothSolver:  Solving for p, Initial residual = 2.44918e-06, Final residual = 7.81829e-17, No Iterations 2
diagonal:  Solving for rho, Initial residual = 0, Final residual = 0, No Iterations 0
time step continuity errors : sum local = 1.29923e-16, global = 2.1987e-17, cumulative = 3.51944e-15
ExecutionTime = 1.71 s  ClockTime = 2 s

Courant Number mean: 0.0202575 max: 0.034819
Time = 0.00988

PIMPLE: iteration 1
diagonal:  Solving for rho, Initial residual = 0, Final residual = 0, No Iterations 0
smoothSolver:  Solving for Ux, Initial residual = 0.000412182, Final residual = 4.04836e-17, No Iterations 1
smoothSolver:  Solving for e, Initial residual = 0.00081464, Final residual = 3.08425e-17, No Iterations 4
smoothSolver:  Solving for p, Initial residual = 0.000410208, Final residual = 3.22824e-16, No Iterations 2
diagonal:  Solving for rho, Initial residual = 0, Final residual = 0, No Iterations 0
time step continuity errors : sum local = 3.32858e-16, global = -2.82879e-16, cumulative = 3.23656e-15
PIMPLE: iteration 2
smoothSolver:  Solving for Ux, Initial residual = 3.92305e-07, Final residual = 3.83179e-17, No Iterations 1
smoothSolver:  Solving for e, Initial residual = 8.13448e-06, Final residual = 4.26063e-17, No Iterations 3
smoothSolver:  Solving for p, Initial residual = 2.32651e-06, Final residual = 6.32207e-17, No Iterations 2
diagonal:  Solving for rho, Initial residual = 0, Final residual = 0, No Iterations 0
time step continuity errors : sum local = 1.37941e-16, global = -3.59846e-17, cumulative = 3.20058e-15
ExecutionTime = 1.71 s  ClockTime = 2 s

Courant Number mean: 0.0202618 max: 0.0346434
Time = 0.00989

PIMPLE: iteration 1
diagonal:  Solving for rho, Initial residual = 0, Final residual = 0, No Iterations 0
smoothSolver:  Solving for Ux, Initial residual = 0.000410641, Final residual = 3.63755e-17, No Iterations 1
smoothSolver:  Solving for e, Initial residual = 0.000815977, Final residual = 3.48373e-17, No Iterations 4
smoothSolver:  Solving for p, Initial residual = 0.000408674, Final residual = 3.40257e-16, No Iterations 2
diagonal:  Solving for rho, Initial residual = 0, Final residual = 0, No Iterations 0
time step continuity errors : sum local = 3.3991e-16, global = -2.85925e-16, cumulative = 2.91465e-15
PIMPLE: iteration 2
smoothSolver:  Solving for Ux, Initial residual = 3.87903e-07, Final residual = 3.47189e-17, No Iterations 1
smoothSolver:  Solving for e, Initial residual = 7.87412e-06, Final residual = 4.58706e-17, No Iterations 3
smoothSolver:  Solving for p, Initial residual = 2.17317e-06, Final residual = 7.40171e-17, No Iterations 2
diagonal:  Solving for rho, Initial residual = 0, Final residual = 0, No Iterations 0
time step continuity errors : sum local = 1.53959e-16, global = -1.79952e-17, cumulative = 2.89666e-15
ExecutionTime = 1.71 s  ClockTime = 2 s

Courant Number mean: 0.0202661 max: 0.0344757
Time = 0.0099

PIMPLE: iteration 1
diagonal:  Solving for rho, Initial residual = 0, Final residual = 0, No Iterations 0
smoothSolver:  Solving for Ux, Initial residual = 0.000409044, Final residual = 3.59722e-17, No Iterations 1
smoothSolver:  Solving for e, Initial residual = 0.000816948, Final residual = 3.44434e-17, No Iterations 4
smoothSolver:  Solving for p, Initial residual = 0.000407057, Final residual = 3.27823e-16, No Iterations 2
diagonal:  Solving for rho, Initial residual = 0, Final residual = 0, No Iterations 0
time step continuity errors : sum local = 3.36966e-16, global = -2.54974e-16, cumulative = 2.64168e-15
PIMPLE: iteration 2
smoothSolver:  Solving for Ux, Initial residual = 3.83288e-07, Final residual = 3.74197e-17, No Iterations 1
smoothSolver:  Solving for e, Initial residual = 7.65841e-06, Final residual = 4.34133e-17, No Iterations 3
smoothSolver:  Solving for p, Initial residual = 2.0917e-06, Final residual = 6.64064e-17, No Iterations 2
diagonal:  Solving for rho, Initial residual = 0, Final residual = 0, No Iterations 0
time step continuity errors : sum local = 1.44985e-16, global = 8.99908e-18, cumulative = 2.65068e-15
ExecutionTime = 1.72 s  ClockTime = 2 s

Courant Number mean: 0.0202706 max: 0.0343157
Time = 0.00991

PIMPLE: iteration 1
diagonal:  Solving for rho, Initial residual = 0, Final residual = 0, No Iterations 0
smoothSolver:  Solving for Ux, Initial residual = 0.000407401, Final residual = 3.86186e-17, No Iterations 1
smoothSolver:  Solving for e, Initial residual = 0.000817616, Final residual = 3.78566e-17, No Iterations 4
smoothSolver:  Solving for p, Initial residual = 0.000405346, Final residual = 3.14232e-16, No Iterations 2
diagonal:  Solving for rho, Initial residual = 0, Final residual = 0, No Iterations 0
time step continuity errors : sum local = 3.26019e-16, global = -2.52015e-16, cumulative = 2.39867e-15
PIMPLE: iteration 2
smoothSolver:  Solving for Ux, Initial residual = 3.78509e-07, Final residual = 3.69912e-17, No Iterations 1
smoothSolver:  Solving for e, Initial residual = 7.22974e-06, Final residual = 3.88776e-17, No Iterations 3
smoothSolver:  Solving for p, Initial residual = 2.05737e-06, Final residual = 6.97546e-17, No Iterations 2
diagonal:  Solving for rho, Initial residual = 0, Final residual = 0, No Iterations 0
time step continuity errors : sum local = 1.47009e-16, global = 3.00018e-18, cumulative = 2.40167e-15
ExecutionTime = 1.72 s  ClockTime = 2 s

Courant Number mean: 0.0202751 max: 0.0341633
Time = 0.00992

PIMPLE: iteration 1
diagonal:  Solving for rho, Initial residual = 0, Final residual = 0, No Iterations 0
smoothSolver:  Solving for Ux, Initial residual = 0.00040584, Final residual = 3.65247e-17, No Iterations 1
smoothSolver:  Solving for e, Initial residual = 0.000818218, Final residual = 3.23867e-17, No Iterations 4
smoothSolver:  Solving for p, Initial residual = 0.00040372, Final residual = 3.42148e-16, No Iterations 2
diagonal:  Solving for rho, Initial residual = 0, Final residual = 0, No Iterations 0
time step continuity errors : sum local = 3.50077e-16, global = -2.80061e-16, cumulative = 2.1216e-15
PIMPLE: iteration 2
smoothSolver:  Solving for Ux, Initial residual = 3.73675e-07, Final residual = 4.14607e-17, No Iterations 1
smoothSolver:  Solving for e, Initial residual = 6.78785e-06, Final residual = 3.71287e-17, No Iterations 3
smoothSolver:  Solving for p, Initial residual = 1.90234e-06, Final residual = 6.31071e-17, No Iterations 2
diagonal:  Solving for rho, Initial residual = 0, Final residual = 0, No Iterations 0
time step continuity errors : sum local = 1.50033e-16, global = -3.60079e-17, cumulative = 2.0856e-15
ExecutionTime = 1.72 s  ClockTime = 2 s

Courant Number mean: 0.0202797 max: 0.0340186
Time = 0.00993

PIMPLE: iteration 1
diagonal:  Solving for rho, Initial residual = 0, Final residual = 0, No Iterations 0
smoothSolver:  Solving for Ux, Initial residual = 0.000404305, Final residual = 3.74606e-17, No Iterations 1
smoothSolver:  Solving for e, Initial residual = 0.000818629, Final residual = 3.56244e-17, No Iterations 4
smoothSolver:  Solving for p, Initial residual = 0.000402159, Final residual = 3.17082e-16, No Iterations 2
diagonal:  Solving for rho, Initial residual = 0, Final residual = 0, No Iterations 0
time step continuity errors : sum local = 3.19121e-16, global = -2.43092e-16, cumulative = 1.8425e-15
PIMPLE: iteration 2
smoothSolver:  Solving for Ux, Initial residual = 3.68823e-07, Final residual = 3.46259e-17, No Iterations 1
smoothSolver:  Solving for e, Initial residual = 6.52283e-06, Final residual = 4.23824e-17, No Iterations 3
smoothSolver:  Solving for p, Initial residual = 1.85822e-06, Final residual = 5.91485e-17, No Iterations 2
diagonal:  Solving for rho, Initial residual = 0, Final residual = 0, No Iterations 0
time step continuity errors : sum local = 1.42054e-16, global = -2.40091e-17, cumulative = 1.8185e-15
ExecutionTime = 1.72 s  ClockTime = 2 s

Courant Number mean: 0.0202844 max: 0.0338814
Time = 0.00994

PIMPLE: iteration 1
diagonal:  Solving for rho, Initial residual = 0, Final residual = 0, No Iterations 0
smoothSolver:  Solving for Ux, Initial residual = 0.000402754, Final residual = 3.55957e-17, No Iterations 1
smoothSolver:  Solving for e, Initial residual = 0.000818735, Final residual = 3.56483e-17, No Iterations 4
smoothSolver:  Solving for p, Initial residual = 0.000400982, Final residual = 3.18252e-16, No Iterations 2
diagonal:  Solving for rho, Initial residual = 0, Final residual = 0, No Iterations 0
time step continuity errors : sum local = 3.31178e-16, global = -2.73147e-16, cumulative = 1.54535e-15
PIMPLE: iteration 2
smoothSolver:  Solving for Ux, Initial residual = 3.63971e-07, Final residual = 4.01198e-17, No Iterations 1
smoothSolver:  Solving for e, Initial residual = 6.26963e-06, Final residual = 4.51565e-17, No Iterations 3
smoothSolver:  Solving for p, Initial residual = 1.84376e-06, Final residual = 7.28943e-17, No Iterations 2
diagonal:  Solving for rho, Initial residual = 0, Final residual = 0, No Iterations 0
time step continuity errors : sum local = 1.37074e-16, global = -2.10113e-17, cumulative = 1.52434e-15
ExecutionTime = 1.72 s  ClockTime = 2 s

Courant Number mean: 0.0202892 max: 0.0337515
Time = 0.00995

PIMPLE: iteration 1
diagonal:  Solving for rho, Initial residual = 0, Final residual = 0, No Iterations 0
smoothSolver:  Solving for Ux, Initial residual = 0.000401223, Final residual = 4.0166e-17, No Iterations 1
smoothSolver:  Solving for e, Initial residual = 0.000818525, Final residual = 3.26185e-17, No Iterations 4
smoothSolver:  Solving for p, Initial residual = 0.000400017, Final residual = 3.14087e-16, No Iterations 2
diagonal:  Solving for rho, Initial residual = 0, Final residual = 0, No Iterations 0
time step continuity errors : sum local = 2.89201e-16, global = -2.37165e-16, cumulative = 1.28717e-15
PIMPLE: iteration 2
smoothSolver:  Solving for Ux, Initial residual = 3.59213e-07, Final residual = 4.16211e-17, No Iterations 1
smoothSolver:  Solving for e, Initial residual = 6.02155e-06, Final residual = 4.66707e-17, No Iterations 3
smoothSolver:  Solving for p, Initial residual = 1.83302e-06, Final residual = 7.24037e-17, No Iterations 2
diagonal:  Solving for rho, Initial residual = 0, Final residual = 0, No Iterations 0
time step continuity errors : sum local = 1.56109e-16, global = -2.00139e-17, cumulative = 1.26716e-15
ExecutionTime = 1.73 s  ClockTime = 2 s

Courant Number mean: 0.020294 max: 0.0336288
Time = 0.00996

PIMPLE: iteration 1
diagonal:  Solving for rho, Initial residual = 0, Final residual = 0, No Iterations 0
smoothSolver:  Solving for Ux, Initial residual = 0.000399794, Final residual = 4.18333e-17, No Iterations 1
smoothSolver:  Solving for e, Initial residual = 0.000818017, Final residual = 2.98082e-17, No Iterations 4
smoothSolver:  Solving for p, Initial residual = 0.000399061, Final residual = 3.18951e-16, No Iterations 2
diagonal:  Solving for rho, Initial residual = 0, Final residual = 0, No Iterations 0
time step continuity errors : sum local = 3.4029e-16, global = -2.56219e-16, cumulative = 1.01094e-15
PIMPLE: iteration 2
smoothSolver:  Solving for Ux, Initial residual = 3.54528e-07, Final residual = 3.54681e-17, No Iterations 1
smoothSolver:  Solving for e, Initial residual = 5.73186e-06, Final residual = 4.34488e-17, No Iterations 3
smoothSolver:  Solving for p, Initial residual = 1.80352e-06, Final residual = 7.92992e-17, No Iterations 2
diagonal:  Solving for rho, Initial residual = 0, Final residual = 0, No Iterations 0
time step continuity errors : sum local = 1.18101e-16, global = -2.20188e-17, cumulative = 9.88921e-16
ExecutionTime = 1.73 s  ClockTime = 2 s

Courant Number mean: 0.020299 max: 0.0335133
Time = 0.00997

PIMPLE: iteration 1
diagonal:  Solving for rho, Initial residual = 0, Final residual = 0, No Iterations 0
smoothSolver:  Solving for Ux, Initial residual = 0.000398373, Final residual = 3.34308e-17, No Iterations 1
smoothSolver:  Solving for e, Initial residual = 0.000817228, Final residual = 3.16035e-17, No Iterations 4
smoothSolver:  Solving for p, Initial residual = 0.000398157, Final residual = 3.07725e-16, No Iterations 2
diagonal:  Solving for rho, Initial residual = 0, Final residual = 0, No Iterations 0
time step continuity errors : sum local = 3.18321e-16, global = -2.56259e-16, cumulative = 7.32663e-16
PIMPLE: iteration 2
smoothSolver:  Solving for Ux, Initial residual = 3.49949e-07, Final residual = 3.73313e-17, No Iterations 1
smoothSolver:  Solving for e, Initial residual = 5.50385e-06, Final residual = 4.28038e-17, No Iterations 3
smoothSolver:  Solving for p, Initial residual = 1.80997e-06, Final residual = 7.74378e-17, No Iterations 2
diagonal:  Solving for rho, Initial residual = 0, Final residual = 0, No Iterations 0
time step continuity errors : sum local = 1.59161e-16, global = 2.10212e-17, cumulative = 7.53684e-16
ExecutionTime = 1.73 s  ClockTime = 2 s

Courant Number mean: 0.020304 max: 0.0334047
Time = 0.00998

PIMPLE: iteration 1
diagonal:  Solving for rho, Initial residual = 0, Final residual = 0, No Iterations 0
smoothSolver:  Solving for Ux, Initial residual = 0.000397003, Final residual = 4.00645e-17, No Iterations 1
smoothSolver:  Solving for e, Initial residual = 0.000816169, Final residual = 3.83245e-17, No Iterations 4
smoothSolver:  Solving for p, Initial residual = 0.000397183, Final residual = 3.23702e-16, No Iterations 2
diagonal:  Solving for rho, Initial residual = 0, Final residual = 0, No Iterations 0
time step continuity errors : sum local = 3.27382e-16, global = -2.69314e-16, cumulative = 4.8437e-16
PIMPLE: iteration 2
smoothSolver:  Solving for Ux, Initial residual = 3.45308e-07, Final residual = 3.97584e-17, No Iterations 1
smoothSolver:  Solving for e, Initial residual = 5.29173e-06, Final residual = 4.34509e-17, No Iterations 3
smoothSolver:  Solving for p, Initial residual = 1.82131e-06, Final residual = 7.58783e-17, No Iterations 2
diagonal:  Solving for rho, Initial residual = 0, Final residual = 0, No Iterations 0
time step continuity errors : sum local = 1.47172e-16, global = -3.30385e-17, cumulative = 4.51331e-16
ExecutionTime = 1.73 s  ClockTime = 2 s

Courant Number mean: 0.0203091 max: 0.0333031
Time = 0.00999

PIMPLE: iteration 1
diagonal:  Solving for rho, Initial residual = 0, Final residual = 0, No Iterations 0
smoothSolver:  Solving for Ux, Initial residual = 0.000395669, Final residual = 4.45003e-17, No Iterations 1
smoothSolver:  Solving for e, Initial residual = 0.000814857, Final residual = 3.20548e-17, No Iterations 4
smoothSolver:  Solving for p, Initial residual = 0.000396206, Final residual = 3.11835e-16, No Iterations 2
diagonal:  Solving for rho, Initial residual = 0, Final residual = 0, No Iterations 0
time step continuity errors : sum local = 3.31438e-16, global = -2.71359e-16, cumulative = 1.79973e-16
PIMPLE: iteration 2
smoothSolver:  Solving for Ux, Initial residual = 3.40974e-07, Final residual = 3.90449e-17, No Iterations 1
smoothSolver:  Solving for e, Initial residual = 5.05526e-06, Final residual = 4.30836e-17, No Iterations 3
smoothSolver:  Solving for p, Initial residual = 1.80084e-06, Final residual = 7.02852e-17, No Iterations 2
diagonal:  Solving for rho, Initial residual = 0, Final residual = 0, No Iterations 0
time step continuity errors : sum local = 1.33176e-16, global = -1.10146e-17, cumulative = 1.68958e-16
ExecutionTime = 1.73 s  ClockTime = 2 s

Courant Number mean: 0.0203142 max: 0.0332084
Time = 0.01

PIMPLE: iteration 1
diagonal:  Solving for rho, Initial residual = 0, Final residual = 0, No Iterations 0
smoothSolver:  Solving for Ux, Initial residual = 0.000394376, Final residual = 3.78803e-17, No Iterations 1
smoothSolver:  Solving for e, Initial residual = 0.000813299, Final residual = 4.10628e-17, No Iterations 4
smoothSolver:  Solving for p, Initial residual = 0.000396619, Final residual = 3.19059e-16, No Iterations 2
diagonal:  Solving for rho, Initial residual = 0, Final residual = 0, No Iterations 0
time step continuity errors : sum local = 3.34494e-16, global = -2.56379e-16, cumulative = -8.74205e-17
PIMPLE: iteration 2
smoothSolver:  Solving for Ux, Initial residual = 3.36741e-07, Final residual = 4.38631e-17, No Iterations 1
smoothSolver:  Solving for e, Initial residual = 4.87975e-06, Final residual = 4.07594e-17, No Iterations 3
smoothSolver:  Solving for p, Initial residual = 1.78626e-06, Final residual = 8.53132e-17, No Iterations 2
diagonal:  Solving for rho, Initial residual = 0, Final residual = 0, No Iterations 0
time step continuity errors : sum local = 1.47217e-16, global = -9.0133e-18, cumulative = -9.64338e-17
ExecutionTime = 1.74 s  ClockTime = 2 s

    functionObjects::mag mag(U) writing field: mag(U)
End

