/*---------------------------------------------------------------------------*\
| =========                 |                                                 |
| \\      /  F ield         | OpenFOAM: The Open Source CFD Toolbox           |
|  \\    /   O peration     | Version:  2012                                  |
|   \\  /    A nd           | Website:  www.openfoam.com                      |
|    \\/     M anipulation  |                                                 |
\*---------------------------------------------------------------------------*/
Build  : _269d0ffd5c-20210619 OPENFOAM=2012 patch=210618
Arch   : "LSB;label=32;scalar=64"
Exec   : mhdPimpleFoam
Date   : Apr 04 2022
Time   : 15:25:55
Host   : gabrielmarconcini-Lenovo-G50-80
PID    : 59972
I/O    : uncollated
Case   : /home/gabrielmarconcini/Documentos/TCC/PTCC/ShockTube/sim/NewSolver/sim5/ShockTube5_1000
nProcs : 1
trapFpe: Floating point exception trapping enabled (FOAM_SIGFPE).
fileModificationChecking : Monitoring run-time modified files using timeStampMaster (fileModificationSkew 5, maxFileModificationPolls 20)
allowSystemOperations : Allowing user-supplied system call operations

// * * * * * * * * * * * * * * * * * * * * * * * * * * * * * * * * * * * * * //
Create time

Create mesh for time = 0


PIMPLE: no residual control data found. Calculations will employ 2 corrector loops

Reading thermophysical properties

Selecting thermodynamics package 
{
    type            hePsiThermo;
    mixture         pureMixture;
    transport       const;
    thermo          eConst;
    equationOfState perfectGas;
    specie          specie;
    energy          sensibleInternalEnergy;
}

Reading field U

Reading/calculating face flux field phi

Creating turbulence model

Selecting turbulence model type laminar
Selecting laminar stress model Stokes
Creating field dpdt

Creating field kinetic energy K

No MRF models present

No finite volume options present
Courant Number mean: 0 max: 0

Starting time loop

Courant Number mean: 0 max: 0
Time = 1e-05

PIMPLE: iteration 1
diagonal:  Solving for rho, Initial residual = 0, Final residual = 0, No Iterations 0
smoothSolver:  Solving for Ux, Initial residual = 1, Final residual = 0, No Iterations 1
smoothSolver:  Solving for e, Initial residual = 2.85024e-17, Final residual = 2.85024e-17, No Iterations 0
smoothSolver:  Solving for p, Initial residual = 0.000178178, Final residual = 6.67182e-17, No Iterations 6
diagonal:  Solving for rho, Initial residual = 0, Final residual = 0, No Iterations 0
time step continuity errors : sum local = 1.28481e-16, global = -8.60413e-17, cumulative = -8.60413e-17
smoothSolver:  Solving for p, Initial residual = 3.90658e-05, Final residual = 5.10426e-17, No Iterations 6
diagonal:  Solving for rho, Initial residual = 0, Final residual = 0, No Iterations 0
time step continuity errors : sum local = 1.12059e-16, global = -3.35113e-17, cumulative = -1.19553e-16
PIMPLE: iteration 2
smoothSolver:  Solving for Ux, Initial residual = 0.0449552, Final residual = 9.82681e-18, No Iterations 1
smoothSolver:  Solving for e, Initial residual = 0.00129148, Final residual = 1.05662e-17, No Iterations 3
smoothSolver:  Solving for p, Initial residual = 6.96408e-05, Final residual = 6.13766e-16, No Iterations 5
diagonal:  Solving for rho, Initial residual = 0, Final residual = 0, No Iterations 0
time step continuity errors : sum local = 1.12024e-15, global = -3.29277e-16, cumulative = -4.48829e-16
smoothSolver:  Solving for p, Initial residual = 9.05027e-06, Final residual = 1.44449e-16, No Iterations 5
diagonal:  Solving for rho, Initial residual = 0, Final residual = 0, No Iterations 0
time step continuity errors : sum local = 2.73161e-16, global = -1.03255e-16, cumulative = -5.52084e-16
ExecutionTime = 0.05 s  ClockTime = 0 s

Courant Number mean: 0.000313922 max: 0.211754
Time = 2e-05

PIMPLE: iteration 1
diagonal:  Solving for rho, Initial residual = 0, Final residual = 0, No Iterations 0
smoothSolver:  Solving for Ux, Initial residual = 0.135197, Final residual = 1.77427e-17, No Iterations 1
smoothSolver:  Solving for e, Initial residual = 0.000639459, Final residual = 9.29041e-18, No Iterations 3
smoothSolver:  Solving for p, Initial residual = 0.000315504, Final residual = 7.78679e-17, No Iterations 6
diagonal:  Solving for rho, Initial residual = 0, Final residual = 0, No Iterations 0
time step continuity errors : sum local = 1.86798e-16, global = -6.71463e-17, cumulative = -6.1923e-16
smoothSolver:  Solving for p, Initial residual = 2.50551e-05, Final residual = 4.43931e-16, No Iterations 5
diagonal:  Solving for rho, Initial residual = 0, Final residual = 0, No Iterations 0
time step continuity errors : sum local = 8.24626e-16, global = 2.91066e-16, cumulative = -3.28164e-16
PIMPLE: iteration 2
smoothSolver:  Solving for Ux, Initial residual = 0.0203518, Final residual = 2.14744e-17, No Iterations 1
smoothSolver:  Solving for e, Initial residual = 0.000317963, Final residual = 4.224e-17, No Iterations 4
smoothSolver:  Solving for p, Initial residual = 4.61307e-05, Final residual = 4.22116e-16, No Iterations 5
diagonal:  Solving for rho, Initial residual = 0, Final residual = 0, No Iterations 0
time step continuity errors : sum local = 7.85204e-16, global = -9.18285e-17, cumulative = -4.19992e-16
smoothSolver:  Solving for p, Initial residual = 1.14251e-06, Final residual = 5.1447e-17, No Iterations 5
diagonal:  Solving for rho, Initial residual = 0, Final residual = 0, No Iterations 0
time step continuity errors : sum local = 1.12158e-16, global = -1.01152e-17, cumulative = -4.30108e-16
ExecutionTime = 0.05 s  ClockTime = 0 s

Courant Number mean: 0.0006093 max: 0.286201
Time = 3e-05

PIMPLE: iteration 1
diagonal:  Solving for rho, Initial residual = 0, Final residual = 0, No Iterations 0
smoothSolver:  Solving for Ux, Initial residual = 0.0710576, Final residual = 2.30431e-17, No Iterations 1
smoothSolver:  Solving for e, Initial residual = 0.000779329, Final residual = 1.43919e-16, No Iterations 4
smoothSolver:  Solving for p, Initial residual = 0.000362501, Final residual = 7.50567e-17, No Iterations 6
diagonal:  Solving for rho, Initial residual = 0, Final residual = 0, No Iterations 0
time step continuity errors : sum local = 1.75743e-16, global = -6.76657e-17, cumulative = -4.97773e-16
smoothSolver:  Solving for p, Initial residual = 3.42095e-05, Final residual = 3.56398e-16, No Iterations 5
diagonal:  Solving for rho, Initial residual = 0, Final residual = 0, No Iterations 0
time step continuity errors : sum local = 6.62214e-16, global = 3.14982e-16, cumulative = -1.82791e-16
PIMPLE: iteration 2
smoothSolver:  Solving for Ux, Initial residual = 0.00601112, Final residual = 5.86521e-18, No Iterations 1
smoothSolver:  Solving for e, Initial residual = 0.000319065, Final residual = 5.45318e-17, No Iterations 5
smoothSolver:  Solving for p, Initial residual = 4.22025e-05, Final residual = 2.69062e-16, No Iterations 5
diagonal:  Solving for rho, Initial residual = 0, Final residual = 0, No Iterations 0
time step continuity errors : sum local = 5.1652e-16, global = 3.34619e-17, cumulative = -1.4933e-16
smoothSolver:  Solving for p, Initial residual = 2.76262e-06, Final residual = 5.38789e-17, No Iterations 5
diagonal:  Solving for rho, Initial residual = 0, Final residual = 0, No Iterations 0
time step continuity errors : sum local = 1.19577e-16, global = -3.36597e-17, cumulative = -1.82989e-16
ExecutionTime = 0.06 s  ClockTime = 0 s

Courant Number mean: 0.000801025 max: 0.282118
Time = 4e-05

PIMPLE: iteration 1
diagonal:  Solving for rho, Initial residual = 0, Final residual = 0, No Iterations 0
smoothSolver:  Solving for Ux, Initial residual = 0.0490376, Final residual = 2.15498e-17, No Iterations 1
smoothSolver:  Solving for e, Initial residual = 0.000771825, Final residual = 1.46332e-16, No Iterations 4
smoothSolver:  Solving for p, Initial residual = 0.000360257, Final residual = 7.28825e-17, No Iterations 6
diagonal:  Solving for rho, Initial residual = 0, Final residual = 0, No Iterations 0
time step continuity errors : sum local = 1.58134e-16, global = -6.4599e-17, cumulative = -2.47588e-16
smoothSolver:  Solving for p, Initial residual = 3.64696e-05, Final residual = 3.14459e-16, No Iterations 5
diagonal:  Solving for rho, Initial residual = 0, Final residual = 0, No Iterations 0
time step continuity errors : sum local = 5.80278e-16, global = 3.45476e-16, cumulative = 9.78877e-17
PIMPLE: iteration 2
smoothSolver:  Solving for Ux, Initial residual = 0.00324491, Final residual = 1.24078e-17, No Iterations 1
smoothSolver:  Solving for e, Initial residual = 0.000310599, Final residual = 7.09876e-16, No Iterations 6
smoothSolver:  Solving for p, Initial residual = 3.9124e-05, Final residual = 2.92804e-16, No Iterations 5
diagonal:  Solving for rho, Initial residual = 0, Final residual = 0, No Iterations 0
time step continuity errors : sum local = 5.48671e-16, global = 5.87376e-17, cumulative = 1.56625e-16
smoothSolver:  Solving for p, Initial residual = 3.34042e-06, Final residual = 5.38387e-17, No Iterations 5
diagonal:  Solving for rho, Initial residual = 0, Final residual = 0, No Iterations 0
time step continuity errors : sum local = 1.16065e-16, global = -2.36682e-17, cumulative = 1.32957e-16
ExecutionTime = 0.06 s  ClockTime = 0 s

Courant Number mean: 0.00100135 max: 0.271958
Time = 5e-05

PIMPLE: iteration 1
diagonal:  Solving for rho, Initial residual = 0, Final residual = 0, No Iterations 0
smoothSolver:  Solving for Ux, Initial residual = 0.0380711, Final residual = 1.69516e-17, No Iterations 1
smoothSolver:  Solving for e, Initial residual = 0.000810534, Final residual = 5.63125e-17, No Iterations 6
smoothSolver:  Solving for p, Initial residual = 0.000348332, Final residual = 7.25959e-17, No Iterations 6
diagonal:  Solving for rho, Initial residual = 0, Final residual = 0, No Iterations 0
time step continuity errors : sum local = 1.59519e-16, global = -6.01968e-17, cumulative = 7.27604e-17
smoothSolver:  Solving for p, Initial residual = 3.46684e-05, Final residual = 2.98796e-16, No Iterations 5
diagonal:  Solving for rho, Initial residual = 0, Final residual = 0, No Iterations 0
time step continuity errors : sum local = 5.48275e-16, global = 3.69367e-16, cumulative = 4.42127e-16
PIMPLE: iteration 2
smoothSolver:  Solving for Ux, Initial residual = 0.00260811, Final residual = 1.36888e-17, No Iterations 1
smoothSolver:  Solving for e, Initial residual = 0.000326873, Final residual = 4.19119e-16, No Iterations 6
smoothSolver:  Solving for p, Initial residual = 3.90512e-05, Final residual = 2.85804e-16, No Iterations 5
diagonal:  Solving for rho, Initial residual = 0, Final residual = 0, No Iterations 0
time step continuity errors : sum local = 5.3863e-16, global = 6.70969e-17, cumulative = 5.09224e-16
smoothSolver:  Solving for p, Initial residual = 4.38196e-06, Final residual = 5.95095e-17, No Iterations 5
diagonal:  Solving for rho, Initial residual = 0, Final residual = 0, No Iterations 0
time step continuity errors : sum local = 1.23287e-16, global = -3.24232e-17, cumulative = 4.76801e-16
ExecutionTime = 0.07 s  ClockTime = 0 s

Courant Number mean: 0.00121046 max: 0.279712
Time = 6e-05

PIMPLE: iteration 1
diagonal:  Solving for rho, Initial residual = 0, Final residual = 0, No Iterations 0
smoothSolver:  Solving for Ux, Initial residual = 0.0326648, Final residual = 1.03364e-17, No Iterations 1
smoothSolver:  Solving for e, Initial residual = 0.000840983, Final residual = 2.2041e-16, No Iterations 6
smoothSolver:  Solving for p, Initial residual = 0.000329881, Final residual = 6.99433e-17, No Iterations 6
diagonal:  Solving for rho, Initial residual = 0, Final residual = 0, No Iterations 0
time step continuity errors : sum local = 1.54301e-16, global = -6.05183e-17, cumulative = 4.16283e-16
smoothSolver:  Solving for p, Initial residual = 3.27368e-05, Final residual = 2.83835e-16, No Iterations 5
diagonal:  Solving for rho, Initial residual = 0, Final residual = 0, No Iterations 0
time step continuity errors : sum local = 5.22455e-16, global = 3.61156e-16, cumulative = 7.77438e-16
PIMPLE: iteration 2
smoothSolver:  Solving for Ux, Initial residual = 0.00210912, Final residual = 1.76411e-17, No Iterations 1
smoothSolver:  Solving for e, Initial residual = 0.000301181, Final residual = 4.20864e-17, No Iterations 7
smoothSolver:  Solving for p, Initial residual = 3.86849e-05, Final residual = 2.7554e-16, No Iterations 5
diagonal:  Solving for rho, Initial residual = 0, Final residual = 0, No Iterations 0
time step continuity errors : sum local = 5.22258e-16, global = 8.71295e-17, cumulative = 8.64568e-16
smoothSolver:  Solving for p, Initial residual = 4.90354e-06, Final residual = 5.72997e-17, No Iterations 5
diagonal:  Solving for rho, Initial residual = 0, Final residual = 0, No Iterations 0
time step continuity errors : sum local = 1.20492e-16, global = -2.88371e-17, cumulative = 8.35731e-16
ExecutionTime = 0.07 s  ClockTime = 0 s

Courant Number mean: 0.00142429 max: 0.291294
Time = 7e-05

PIMPLE: iteration 1
diagonal:  Solving for rho, Initial residual = 0, Final residual = 0, No Iterations 0
smoothSolver:  Solving for Ux, Initial residual = 0.028205, Final residual = 1.52193e-17, No Iterations 1
smoothSolver:  Solving for e, Initial residual = 0.000863259, Final residual = 4.18425e-17, No Iterations 7
smoothSolver:  Solving for p, Initial residual = 0.000313349, Final residual = 6.9169e-17, No Iterations 6
diagonal:  Solving for rho, Initial residual = 0, Final residual = 0, No Iterations 0
time step continuity errors : sum local = 1.54301e-16, global = -4.9389e-17, cumulative = 7.86342e-16
smoothSolver:  Solving for p, Initial residual = 2.90504e-05, Final residual = 2.62456e-16, No Iterations 5
diagonal:  Solving for rho, Initial residual = 0, Final residual = 0, No Iterations 0
time step continuity errors : sum local = 4.76084e-16, global = 3.38279e-16, cumulative = 1.12462e-15
PIMPLE: iteration 2
smoothSolver:  Solving for Ux, Initial residual = 0.00158704, Final residual = 1.15636e-17, No Iterations 1
smoothSolver:  Solving for e, Initial residual = 0.000263336, Final residual = 4.63535e-17, No Iterations 7
smoothSolver:  Solving for p, Initial residual = 3.4055e-05, Final residual = 2.77507e-16, No Iterations 5
diagonal:  Solving for rho, Initial residual = 0, Final residual = 0, No Iterations 0
time step continuity errors : sum local = 5.30295e-16, global = 7.3354e-17, cumulative = 1.19797e-15
smoothSolver:  Solving for p, Initial residual = 4.49208e-06, Final residual = 5.99312e-17, No Iterations 5
diagonal:  Solving for rho, Initial residual = 0, Final residual = 0, No Iterations 0
time step continuity errors : sum local = 1.18291e-16, global = -2.61413e-17, cumulative = 1.17183e-15
ExecutionTime = 0.07 s  ClockTime = 0 s

Courant Number mean: 0.00163991 max: 0.294632
Time = 8e-05

PIMPLE: iteration 1
diagonal:  Solving for rho, Initial residual = 0, Final residual = 0, No Iterations 0
smoothSolver:  Solving for Ux, Initial residual = 0.0246172, Final residual = 1.10768e-17, No Iterations 1
smoothSolver:  Solving for e, Initial residual = 0.000875421, Final residual = 4.42179e-17, No Iterations 7
smoothSolver:  Solving for p, Initial residual = 0.000302259, Final residual = 6.84327e-17, No Iterations 6
diagonal:  Solving for rho, Initial residual = 0, Final residual = 0, No Iterations 0
time step continuity errors : sum local = 1.59395e-16, global = -4.64707e-17, cumulative = 1.12536e-15
smoothSolver:  Solving for p, Initial residual = 2.57895e-05, Final residual = 2.43131e-16, No Iterations 5
diagonal:  Solving for rho, Initial residual = 0, Final residual = 0, No Iterations 0
time step continuity errors : sum local = 4.54666e-16, global = 2.99698e-16, cumulative = 1.42506e-15
PIMPLE: iteration 2
smoothSolver:  Solving for Ux, Initial residual = 0.00129039, Final residual = 8.8346e-18, No Iterations 1
smoothSolver:  Solving for e, Initial residual = 0.000249908, Final residual = 7.65756e-17, No Iterations 7
smoothSolver:  Solving for p, Initial residual = 3.18614e-05, Final residual = 2.74452e-16, No Iterations 5
diagonal:  Solving for rho, Initial residual = 0, Final residual = 0, No Iterations 0
time step continuity errors : sum local = 5.20675e-16, global = 8.41617e-17, cumulative = 1.50922e-15
smoothSolver:  Solving for p, Initial residual = 4.22119e-06, Final residual = 5.81787e-17, No Iterations 5
diagonal:  Solving for rho, Initial residual = 0, Final residual = 0, No Iterations 0
time step continuity errors : sum local = 1.23386e-16, global = -2.43112e-17, cumulative = 1.48491e-15
ExecutionTime = 0.08 s  ClockTime = 0 s

Courant Number mean: 0.00185616 max: 0.293265
Time = 9e-05

PIMPLE: iteration 1
diagonal:  Solving for rho, Initial residual = 0, Final residual = 0, No Iterations 0
smoothSolver:  Solving for Ux, Initial residual = 0.0222021, Final residual = 1.56994e-17, No Iterations 1
smoothSolver:  Solving for e, Initial residual = 0.000902275, Final residual = 9.27004e-17, No Iterations 7
smoothSolver:  Solving for p, Initial residual = 0.000296912, Final residual = 6.89665e-17, No Iterations 6
diagonal:  Solving for rho, Initial residual = 0, Final residual = 0, No Iterations 0
time step continuity errors : sum local = 1.62165e-16, global = -3.48469e-17, cumulative = 1.45006e-15
smoothSolver:  Solving for p, Initial residual = 2.36329e-05, Final residual = 2.30863e-16, No Iterations 5
diagonal:  Solving for rho, Initial residual = 0, Final residual = 0, No Iterations 0
time step continuity errors : sum local = 4.34732e-16, global = 2.74323e-16, cumulative = 1.72439e-15
PIMPLE: iteration 2
smoothSolver:  Solving for Ux, Initial residual = 0.00107149, Final residual = 1.70813e-17, No Iterations 1
smoothSolver:  Solving for e, Initial residual = 0.000228216, Final residual = 6.39729e-17, No Iterations 7
smoothSolver:  Solving for p, Initial residual = 2.88371e-05, Final residual = 2.52037e-16, No Iterations 5
diagonal:  Solving for rho, Initial residual = 0, Final residual = 0, No Iterations 0
time step continuity errors : sum local = 4.88004e-16, global = 7.61734e-17, cumulative = 1.80056e-15
smoothSolver:  Solving for p, Initial residual = 3.55769e-06, Final residual = 5.4454e-17, No Iterations 5
diagonal:  Solving for rho, Initial residual = 0, Final residual = 0, No Iterations 0
time step continuity errors : sum local = 1.20839e-16, global = -2.20111e-17, cumulative = 1.77855e-15
ExecutionTime = 0.08 s  ClockTime = 0 s

Courant Number mean: 0.00207241 max: 0.297907
Time = 0.0001

PIMPLE: iteration 1
diagonal:  Solving for rho, Initial residual = 0, Final residual = 0, No Iterations 0
smoothSolver:  Solving for Ux, Initial residual = 0.0198223, Final residual = 2.21325e-17, No Iterations 1
smoothSolver:  Solving for e, Initial residual = 0.000916664, Final residual = 1.08699e-16, No Iterations 7
smoothSolver:  Solving for p, Initial residual = 0.000292532, Final residual = 6.96697e-17, No Iterations 6
diagonal:  Solving for rho, Initial residual = 0, Final residual = 0, No Iterations 0
time step continuity errors : sum local = 1.5477e-16, global = -3.02715e-17, cumulative = 1.74828e-15
smoothSolver:  Solving for p, Initial residual = 2.24166e-05, Final residual = 2.20045e-16, No Iterations 5
diagonal:  Solving for rho, Initial residual = 0, Final residual = 0, No Iterations 0
time step continuity errors : sum local = 4.11856e-16, global = 2.49962e-16, cumulative = 1.99824e-15
PIMPLE: iteration 2
smoothSolver:  Solving for Ux, Initial residual = 0.000909316, Final residual = 1.26555e-17, No Iterations 1
smoothSolver:  Solving for e, Initial residual = 0.000218633, Final residual = 5.64706e-17, No Iterations 7
smoothSolver:  Solving for p, Initial residual = 2.78019e-05, Final residual = 2.53884e-16, No Iterations 5
diagonal:  Solving for rho, Initial residual = 0, Final residual = 0, No Iterations 0
time step continuity errors : sum local = 4.81376e-16, global = 7.82508e-17, cumulative = 2.07649e-15
smoothSolver:  Solving for p, Initial residual = 3.01921e-06, Final residual = 5.92826e-17, No Iterations 5
diagonal:  Solving for rho, Initial residual = 0, Final residual = 0, No Iterations 0
time step continuity errors : sum local = 1.24177e-16, global = -6.15817e-18, cumulative = 2.07033e-15
ExecutionTime = 0.09 s  ClockTime = 0 s

Courant Number mean: 0.00228865 max: 0.300437
Time = 0.00011

PIMPLE: iteration 1
diagonal:  Solving for rho, Initial residual = 0, Final residual = 0, No Iterations 0
smoothSolver:  Solving for Ux, Initial residual = 0.0177133, Final residual = 1.33974e-17, No Iterations 1
smoothSolver:  Solving for e, Initial residual = 0.000946933, Final residual = 1.13283e-16, No Iterations 7
smoothSolver:  Solving for p, Initial residual = 0.000289899, Final residual = 6.94563e-17, No Iterations 6
diagonal:  Solving for rho, Initial residual = 0, Final residual = 0, No Iterations 0
time step continuity errors : sum local = 1.53831e-16, global = -3.57125e-17, cumulative = 2.03462e-15
smoothSolver:  Solving for p, Initial residual = 2.23363e-05, Final residual = 2.22312e-16, No Iterations 5
diagonal:  Solving for rho, Initial residual = 0, Final residual = 0, No Iterations 0
time step continuity errors : sum local = 4.1925e-16, global = 2.2392e-16, cumulative = 2.25854e-15
PIMPLE: iteration 2
smoothSolver:  Solving for Ux, Initial residual = 0.000783813, Final residual = 1.14415e-17, No Iterations 1
smoothSolver:  Solving for e, Initial residual = 0.000224166, Final residual = 1.31876e-16, No Iterations 7
smoothSolver:  Solving for p, Initial residual = 2.70687e-05, Final residual = 2.4884e-16, No Iterations 5
diagonal:  Solving for rho, Initial residual = 0, Final residual = 0, No Iterations 0
time step continuity errors : sum local = 4.77172e-16, global = 7.2711e-17, cumulative = 2.33125e-15
smoothSolver:  Solving for p, Initial residual = 3.15697e-06, Final residual = 5.7605e-17, No Iterations 5
diagonal:  Solving for rho, Initial residual = 0, Final residual = 0, No Iterations 0
time step continuity errors : sum local = 1.20542e-16, global = -1.99831e-17, cumulative = 2.31127e-15
ExecutionTime = 0.09 s  ClockTime = 0 s

Courant Number mean: 0.00250483 max: 0.29985
Time = 0.00012

PIMPLE: iteration 1
diagonal:  Solving for rho, Initial residual = 0, Final residual = 0, No Iterations 0
smoothSolver:  Solving for Ux, Initial residual = 0.0162673, Final residual = 1.35523e-17, No Iterations 1
smoothSolver:  Solving for e, Initial residual = 0.000983277, Final residual = 2.23692e-16, No Iterations 7
smoothSolver:  Solving for p, Initial residual = 0.000288486, Final residual = 7.01065e-17, No Iterations 6
diagonal:  Solving for rho, Initial residual = 0, Final residual = 0, No Iterations 0
time step continuity errors : sum local = 1.52742e-16, global = -3.46737e-17, cumulative = 2.2766e-15
smoothSolver:  Solving for p, Initial residual = 2.10168e-05, Final residual = 2.15935e-16, No Iterations 5
diagonal:  Solving for rho, Initial residual = 0, Final residual = 0, No Iterations 0
time step continuity errors : sum local = 4.03051e-16, global = 1.99658e-16, cumulative = 2.47625e-15
PIMPLE: iteration 2
smoothSolver:  Solving for Ux, Initial residual = 0.000687013, Final residual = 9.82298e-18, No Iterations 1
smoothSolver:  Solving for e, Initial residual = 0.000213252, Final residual = 6.08612e-17, No Iterations 7
smoothSolver:  Solving for p, Initial residual = 2.61276e-05, Final residual = 2.4233e-16, No Iterations 5
diagonal:  Solving for rho, Initial residual = 0, Final residual = 0, No Iterations 0
time step continuity errors : sum local = 4.54666e-16, global = 6.88528e-17, cumulative = 2.54511e-15
smoothSolver:  Solving for p, Initial residual = 2.59929e-06, Final residual = 5.77648e-17, No Iterations 5
diagonal:  Solving for rho, Initial residual = 0, Final residual = 0, No Iterations 0
time step continuity errors : sum local = 1.18464e-16, global = -1.22669e-17, cumulative = 2.53284e-15
ExecutionTime = 0.09 s  ClockTime = 0 s

Courant Number mean: 0.00272099 max: 0.299548
Time = 0.00013

PIMPLE: iteration 1
diagonal:  Solving for rho, Initial residual = 0, Final residual = 0, No Iterations 0
smoothSolver:  Solving for Ux, Initial residual = 0.0149433, Final residual = 1.01878e-17, No Iterations 1
smoothSolver:  Solving for e, Initial residual = 0.000991631, Final residual = 2.25957e-16, No Iterations 7
smoothSolver:  Solving for p, Initial residual = 0.000287636, Final residual = 6.88464e-17, No Iterations 6
diagonal:  Solving for rho, Initial residual = 0, Final residual = 0, No Iterations 0
time step continuity errors : sum local = 1.57392e-16, global = -3.13102e-17, cumulative = 2.50153e-15
smoothSolver:  Solving for p, Initial residual = 2.01479e-05, Final residual = 2.1796e-16, No Iterations 5
diagonal:  Solving for rho, Initial residual = 0, Final residual = 0, No Iterations 0
time step continuity errors : sum local = 4.08368e-16, global = 1.85883e-16, cumulative = 2.68741e-15
PIMPLE: iteration 2
smoothSolver:  Solving for Ux, Initial residual = 0.000612139, Final residual = 1.15119e-17, No Iterations 1
smoothSolver:  Solving for e, Initial residual = 0.000200541, Final residual = 1.22093e-16, No Iterations 7
smoothSolver:  Solving for p, Initial residual = 2.41023e-05, Final residual = 2.40082e-16, No Iterations 5
diagonal:  Solving for rho, Initial residual = 0, Final residual = 0, No Iterations 0
time step continuity errors : sum local = 4.61072e-16, global = 7.11034e-17, cumulative = 2.75852e-15
smoothSolver:  Solving for p, Initial residual = 2.24e-06, Final residual = 5.40548e-17, No Iterations 5
diagonal:  Solving for rho, Initial residual = 0, Final residual = 0, No Iterations 0
time step continuity errors : sum local = 1.14656e-16, global = -1.08819e-17, cumulative = 2.74763e-15
ExecutionTime = 0.1 s  ClockTime = 0 s

Courant Number mean: 0.00293721 max: 0.300997
Time = 0.00014

PIMPLE: iteration 1
diagonal:  Solving for rho, Initial residual = 0, Final residual = 0, No Iterations 0
smoothSolver:  Solving for Ux, Initial residual = 0.0137843, Final residual = 8.77759e-18, No Iterations 1
smoothSolver:  Solving for e, Initial residual = 0.00102285, Final residual = 2.88074e-16, No Iterations 7
smoothSolver:  Solving for p, Initial residual = 0.000286848, Final residual = 6.81587e-17, No Iterations 6
diagonal:  Solving for rho, Initial residual = 0, Final residual = 0, No Iterations 0
time step continuity errors : sum local = 1.60533e-16, global = -4.27115e-17, cumulative = 2.70492e-15
smoothSolver:  Solving for p, Initial residual = 1.98753e-05, Final residual = 2.15488e-16, No Iterations 5
diagonal:  Solving for rho, Initial residual = 0, Final residual = 0, No Iterations 0
time step continuity errors : sum local = 4.03768e-16, global = 1.6684e-16, cumulative = 2.87176e-15
PIMPLE: iteration 2
smoothSolver:  Solving for Ux, Initial residual = 0.000550835, Final residual = 1.50218e-17, No Iterations 1
smoothSolver:  Solving for e, Initial residual = 0.000200004, Final residual = 6.53139e-17, No Iterations 7
smoothSolver:  Solving for p, Initial residual = 2.45763e-05, Final residual = 2.38827e-16, No Iterations 5
diagonal:  Solving for rho, Initial residual = 0, Final residual = 0, No Iterations 0
time step continuity errors : sum local = 4.50066e-16, global = 5.63881e-17, cumulative = 2.92815e-15
smoothSolver:  Solving for p, Initial residual = 2.4011e-06, Final residual = 5.62864e-17, No Iterations 5
diagonal:  Solving for rho, Initial residual = 0, Final residual = 0, No Iterations 0
time step continuity errors : sum local = 1.12084e-16, global = -1.26131e-17, cumulative = 2.91554e-15
ExecutionTime = 0.1 s  ClockTime = 0 s

Courant Number mean: 0.00315351 max: 0.300731
Time = 0.00015

PIMPLE: iteration 1
diagonal:  Solving for rho, Initial residual = 0, Final residual = 0, No Iterations 0
smoothSolver:  Solving for Ux, Initial residual = 0.0128337, Final residual = 1.27299e-17, No Iterations 1
smoothSolver:  Solving for e, Initial residual = 0.00102282, Final residual = 3.08225e-16, No Iterations 7
smoothSolver:  Solving for p, Initial residual = 0.000287468, Final residual = 6.82553e-17, No Iterations 6
diagonal:  Solving for rho, Initial residual = 0, Final residual = 0, No Iterations 0
time step continuity errors : sum local = 1.60434e-16, global = -3.25221e-17, cumulative = 2.88301e-15
smoothSolver:  Solving for p, Initial residual = 1.93456e-05, Final residual = 2.15478e-16, No Iterations 5
diagonal:  Solving for rho, Initial residual = 0, Final residual = 0, No Iterations 0
time step continuity errors : sum local = 4.03472e-16, global = 1.51506e-16, cumulative = 3.03452e-15
PIMPLE: iteration 2
smoothSolver:  Solving for Ux, Initial residual = 0.000498771, Final residual = 1.34588e-17, No Iterations 1
smoothSolver:  Solving for e, Initial residual = 0.000203653, Final residual = 1.12463e-16, No Iterations 7
smoothSolver:  Solving for p, Initial residual = 2.37541e-05, Final residual = 2.37068e-16, No Iterations 5
diagonal:  Solving for rho, Initial residual = 0, Final residual = 0, No Iterations 0
time step continuity errors : sum local = 4.4648e-16, global = 5.39891e-17, cumulative = 3.08851e-15
smoothSolver:  Solving for p, Initial residual = 2.21736e-06, Final residual = 5.60767e-17, No Iterations 5
diagonal:  Solving for rho, Initial residual = 0, Final residual = 0, No Iterations 0
time step continuity errors : sum local = 1.15348e-16, global = -9.00231e-18, cumulative = 3.07951e-15
ExecutionTime = 0.11 s  ClockTime = 0 s

Courant Number mean: 0.00336993 max: 0.299475
Time = 0.00016

PIMPLE: iteration 1
diagonal:  Solving for rho, Initial residual = 0, Final residual = 0, No Iterations 0
smoothSolver:  Solving for Ux, Initial residual = 0.0119369, Final residual = 1.57032e-17, No Iterations 1
smoothSolver:  Solving for e, Initial residual = 0.00103257, Final residual = 3.56457e-16, No Iterations 7
smoothSolver:  Solving for p, Initial residual = 0.000288083, Final residual = 6.8436e-17, No Iterations 6
diagonal:  Solving for rho, Initial residual = 0, Final residual = 0, No Iterations 0
time step continuity errors : sum local = 1.63971e-16, global = -2.75016e-17, cumulative = 3.05201e-15
smoothSolver:  Solving for p, Initial residual = 1.96841e-05, Final residual = 2.13095e-16, No Iterations 5
diagonal:  Solving for rho, Initial residual = 0, Final residual = 0, No Iterations 0
time step continuity errors : sum local = 4.0132e-16, global = 1.32636e-16, cumulative = 3.18464e-15
PIMPLE: iteration 2
smoothSolver:  Solving for Ux, Initial residual = 0.000455448, Final residual = 1.0921e-17, No Iterations 1
smoothSolver:  Solving for e, Initial residual = 0.000194051, Final residual = 5.91028e-17, No Iterations 7
smoothSolver:  Solving for p, Initial residual = 2.34137e-05, Final residual = 2.35512e-16, No Iterations 5
diagonal:  Solving for rho, Initial residual = 0, Final residual = 0, No Iterations 0
time step continuity errors : sum local = 4.48458e-16, global = 5.12192e-17, cumulative = 3.23586e-15
smoothSolver:  Solving for p, Initial residual = 2.1862e-06, Final residual = 5.41904e-17, No Iterations 5
diagonal:  Solving for rho, Initial residual = 0, Final residual = 0, No Iterations 0
time step continuity errors : sum local = 1.14532e-16, global = -8.6808e-18, cumulative = 3.22718e-15
ExecutionTime = 0.11 s  ClockTime = 0 s

Courant Number mean: 0.0035865 max: 0.299052
Time = 0.00017

PIMPLE: iteration 1
diagonal:  Solving for rho, Initial residual = 0, Final residual = 0, No Iterations 0
smoothSolver:  Solving for Ux, Initial residual = 0.0111962, Final residual = 1.66479e-17, No Iterations 1
smoothSolver:  Solving for e, Initial residual = 0.00103381, Final residual = 3.49604e-16, No Iterations 7
smoothSolver:  Solving for p, Initial residual = 0.000289423, Final residual = 6.6999e-17, No Iterations 6
diagonal:  Solving for rho, Initial residual = 0, Final residual = 0, No Iterations 0
time step continuity errors : sum local = 1.58901e-16, global = -2.96037e-17, cumulative = 3.19758e-15
smoothSolver:  Solving for p, Initial residual = 1.87999e-05, Final residual = 2.07073e-16, No Iterations 5
diagonal:  Solving for rho, Initial residual = 0, Final residual = 0, No Iterations 0
time step continuity errors : sum local = 4.00133e-16, global = 1.19033e-16, cumulative = 3.31661e-15
PIMPLE: iteration 2
smoothSolver:  Solving for Ux, Initial residual = 0.000418017, Final residual = 1.37154e-17, No Iterations 1
smoothSolver:  Solving for e, Initial residual = 0.000190975, Final residual = 9.41618e-17, No Iterations 7
smoothSolver:  Solving for p, Initial residual = 2.23786e-05, Final residual = 2.31224e-16, No Iterations 5
diagonal:  Solving for rho, Initial residual = 0, Final residual = 0, No Iterations 0
time step continuity errors : sum local = 4.41484e-16, global = 5.0774e-17, cumulative = 3.36738e-15
smoothSolver:  Solving for p, Initial residual = 2.34968e-06, Final residual = 5.53565e-17, No Iterations 5
diagonal:  Solving for rho, Initial residual = 0, Final residual = 0, No Iterations 0
time step continuity errors : sum local = 1.20171e-16, global = -6.50442e-18, cumulative = 3.36088e-15
ExecutionTime = 0.12 s  ClockTime = 0 s

Courant Number mean: 0.00380323 max: 0.298807
Time = 0.00018

PIMPLE: iteration 1
diagonal:  Solving for rho, Initial residual = 0, Final residual = 0, No Iterations 0
smoothSolver:  Solving for Ux, Initial residual = 0.0105151, Final residual = 2.0135e-17, No Iterations 1
smoothSolver:  Solving for e, Initial residual = 0.00103811, Final residual = 4.26005e-16, No Iterations 7
smoothSolver:  Solving for p, Initial residual = 0.000288567, Final residual = 6.65187e-17, No Iterations 6
diagonal:  Solving for rho, Initial residual = 0, Final residual = 0, No Iterations 0
time step continuity errors : sum local = 1.49799e-16, global = -3.46985e-17, cumulative = 3.32618e-15
smoothSolver:  Solving for p, Initial residual = 1.87746e-05, Final residual = 2.14255e-16, No Iterations 5
diagonal:  Solving for rho, Initial residual = 0, Final residual = 0, No Iterations 0
time step continuity errors : sum local = 4.00702e-16, global = 1.02785e-16, cumulative = 3.42896e-15
PIMPLE: iteration 2
smoothSolver:  Solving for Ux, Initial residual = 0.000385205, Final residual = 1.21859e-17, No Iterations 1
smoothSolver:  Solving for e, Initial residual = 0.000188592, Final residual = 5.36886e-17, No Iterations 7
smoothSolver:  Solving for p, Initial residual = 2.31137e-05, Final residual = 2.28473e-16, No Iterations 5
diagonal:  Solving for rho, Initial residual = 0, Final residual = 0, No Iterations 0
time step continuity errors : sum local = 4.36241e-16, global = 4.39481e-17, cumulative = 3.47291e-15
smoothSolver:  Solving for p, Initial residual = 2.35804e-06, Final residual = 5.22773e-17, No Iterations 5
diagonal:  Solving for rho, Initial residual = 0, Final residual = 0, No Iterations 0
time step continuity errors : sum local = 1.14433e-16, global = -2.1838e-17, cumulative = 3.45107e-15
ExecutionTime = 0.12 s  ClockTime = 0 s

Courant Number mean: 0.00402015 max: 0.298086
Time = 0.00019

PIMPLE: iteration 1
diagonal:  Solving for rho, Initial residual = 0, Final residual = 0, No Iterations 0
smoothSolver:  Solving for Ux, Initial residual = 0.00993505, Final residual = 1.6639e-17, No Iterations 1
smoothSolver:  Solving for e, Initial residual = 0.00104819, Final residual = 4.43441e-16, No Iterations 7
smoothSolver:  Solving for p, Initial residual = 0.000288996, Final residual = 6.73842e-17, No Iterations 6
diagonal:  Solving for rho, Initial residual = 0, Final residual = 0, No Iterations 0
time step continuity errors : sum local = 1.61572e-16, global = -2.94554e-17, cumulative = 3.42162e-15
smoothSolver:  Solving for p, Initial residual = 1.81053e-05, Final residual = 2.05842e-16, No Iterations 5
diagonal:  Solving for rho, Initial residual = 0, Final residual = 0, No Iterations 0
time step continuity errors : sum local = 3.89696e-16, global = 9.86544e-17, cumulative = 3.52027e-15
PIMPLE: iteration 2
smoothSolver:  Solving for Ux, Initial residual = 0.000357607, Final residual = 1.30255e-17, No Iterations 1
smoothSolver:  Solving for e, Initial residual = 0.000185404, Final residual = 6.78853e-17, No Iterations 7
smoothSolver:  Solving for p, Initial residual = 2.14037e-05, Final residual = 2.27826e-16, No Iterations 5
diagonal:  Solving for rho, Initial residual = 0, Final residual = 0, No Iterations 0
time step continuity errors : sum local = 4.39357e-16, global = 4.35524e-17, cumulative = 3.56383e-15
smoothSolver:  Solving for p, Initial residual = 2.05671e-06, Final residual = 5.34792e-17, No Iterations 5
diagonal:  Solving for rho, Initial residual = 0, Final residual = 0, No Iterations 0
time step continuity errors : sum local = 1.18563e-16, global = -1.39981e-17, cumulative = 3.54983e-15
ExecutionTime = 0.12 s  ClockTime = 0 s

Courant Number mean: 0.00423723 max: 0.297558
Time = 0.0002

PIMPLE: iteration 1
diagonal:  Solving for rho, Initial residual = 0, Final residual = 0, No Iterations 0
smoothSolver:  Solving for Ux, Initial residual = 0.00940316, Final residual = 1.20616e-17, No Iterations 1
smoothSolver:  Solving for e, Initial residual = 0.00104818, Final residual = 4.85553e-16, No Iterations 7
smoothSolver:  Solving for p, Initial residual = 0.000289287, Final residual = 6.80341e-17, No Iterations 6
diagonal:  Solving for rho, Initial residual = 0, Final residual = 0, No Iterations 0
time step continuity errors : sum local = 1.65479e-16, global = -2.8565e-17, cumulative = 3.52126e-15
smoothSolver:  Solving for p, Initial residual = 1.83846e-05, Final residual = 2.14218e-16, No Iterations 5
diagonal:  Solving for rho, Initial residual = 0, Final residual = 0, No Iterations 0
time step continuity errors : sum local = 4.04807e-16, global = 9.24963e-17, cumulative = 3.61376e-15
PIMPLE: iteration 2
smoothSolver:  Solving for Ux, Initial residual = 0.000333753, Final residual = 1.33779e-17, No Iterations 1
smoothSolver:  Solving for e, Initial residual = 0.00018819, Final residual = 6.05391e-17, No Iterations 7
smoothSolver:  Solving for p, Initial residual = 2.25184e-05, Final residual = 2.26326e-16, No Iterations 5
diagonal:  Solving for rho, Initial residual = 0, Final residual = 0, No Iterations 0
time step continuity errors : sum local = 4.37082e-16, global = 5.35934e-17, cumulative = 3.66735e-15
smoothSolver:  Solving for p, Initial residual = 2.20838e-06, Final residual = 5.34725e-17, No Iterations 5
diagonal:  Solving for rho, Initial residual = 0, Final residual = 0, No Iterations 0
time step continuity errors : sum local = 1.17723e-16, global = -2.76994e-18, cumulative = 3.66458e-15
ExecutionTime = 0.13 s  ClockTime = 0 s

Courant Number mean: 0.00445448 max: 0.297323
Time = 0.00021

PIMPLE: iteration 1
diagonal:  Solving for rho, Initial residual = 0, Final residual = 0, No Iterations 0
smoothSolver:  Solving for Ux, Initial residual = 0.00893489, Final residual = 1.78466e-17, No Iterations 1
smoothSolver:  Solving for e, Initial residual = 0.00105511, Final residual = 4.78149e-16, No Iterations 7
smoothSolver:  Solving for p, Initial residual = 0.000289348, Final residual = 6.88848e-17, No Iterations 6
diagonal:  Solving for rho, Initial residual = 0, Final residual = 0, No Iterations 0
time step continuity errors : sum local = 1.56502e-16, global = -2.69575e-17, cumulative = 3.63763e-15
smoothSolver:  Solving for p, Initial residual = 1.77365e-05, Final residual = 2.0789e-16, No Iterations 5
diagonal:  Solving for rho, Initial residual = 0, Final residual = 0, No Iterations 0
time step continuity errors : sum local = 3.90364e-16, global = 8.39886e-17, cumulative = 3.72161e-15
PIMPLE: iteration 2
smoothSolver:  Solving for Ux, Initial residual = 0.000312689, Final residual = 1.16607e-17, No Iterations 1
smoothSolver:  Solving for e, Initial residual = 0.000176775, Final residual = 5.85248e-17, No Iterations 7
smoothSolver:  Solving for p, Initial residual = 2.08303e-05, Final residual = 2.23052e-16, No Iterations 5
diagonal:  Solving for rho, Initial residual = 0, Final residual = 0, No Iterations 0
time step continuity errors : sum local = 4.18607e-16, global = 4.77815e-17, cumulative = 3.7694e-15
smoothSolver:  Solving for p, Initial residual = 2.2037e-06, Final residual = 5.532e-17, No Iterations 5
diagonal:  Solving for rho, Initial residual = 0, Final residual = 0, No Iterations 0
time step continuity errors : sum local = 1.13988e-16, global = -9.71953e-18, cumulative = 3.75968e-15
ExecutionTime = 0.13 s  ClockTime = 0 s

Courant Number mean: 0.00467187 max: 0.296841
Time = 0.00022

PIMPLE: iteration 1
diagonal:  Solving for rho, Initial residual = 0, Final residual = 0, No Iterations 0
smoothSolver:  Solving for Ux, Initial residual = 0.00850984, Final residual = 1.40348e-17, No Iterations 1
smoothSolver:  Solving for e, Initial residual = 0.00105556, Final residual = 4.72793e-16, No Iterations 7
smoothSolver:  Solving for p, Initial residual = 0.000289685, Final residual = 6.86752e-17, No Iterations 6
diagonal:  Solving for rho, Initial residual = 0, Final residual = 0, No Iterations 0
time step continuity errors : sum local = 1.55562e-16, global = -1.83509e-17, cumulative = 3.74133e-15
smoothSolver:  Solving for p, Initial residual = 1.74425e-05, Final residual = 2.08494e-16, No Iterations 5
diagonal:  Solving for rho, Initial residual = 0, Final residual = 0, No Iterations 0
time step continuity errors : sum local = 3.92491e-16, global = 7.5283e-17, cumulative = 3.81661e-15
PIMPLE: iteration 2
smoothSolver:  Solving for Ux, Initial residual = 0.000293827, Final residual = 1.61252e-17, No Iterations 1
smoothSolver:  Solving for e, Initial residual = 0.00017655, Final residual = 7.08185e-17, No Iterations 7
smoothSolver:  Solving for p, Initial residual = 2.13878e-05, Final residual = 2.22481e-16, No Iterations 5
diagonal:  Solving for rho, Initial residual = 0, Final residual = 0, No Iterations 0
time step continuity errors : sum local = 4.20289e-16, global = 5.51515e-17, cumulative = 3.87176e-15
smoothSolver:  Solving for p, Initial residual = 2.09875e-06, Final residual = 5.37578e-17, No Iterations 5
diagonal:  Solving for rho, Initial residual = 0, Final residual = 0, No Iterations 0
time step continuity errors : sum local = 1.1107e-16, global = -1.08572e-17, cumulative = 3.8609e-15
ExecutionTime = 0.14 s  ClockTime = 0 s

Courant Number mean: 0.00488938 max: 0.296478
Time = 0.00023

PIMPLE: iteration 1
diagonal:  Solving for rho, Initial residual = 0, Final residual = 0, No Iterations 0
smoothSolver:  Solving for Ux, Initial residual = 0.00813111, Final residual = 1.4024e-17, No Iterations 1
smoothSolver:  Solving for e, Initial residual = 0.00106755, Final residual = 5.3615e-16, No Iterations 7
smoothSolver:  Solving for p, Initial residual = 0.000290005, Final residual = 6.67727e-17, No Iterations 6
diagonal:  Solving for rho, Initial residual = 0, Final residual = 0, No Iterations 0
time step continuity errors : sum local = 1.51753e-16, global = -1.84003e-17, cumulative = 3.8425e-15
smoothSolver:  Solving for p, Initial residual = 1.71218e-05, Final residual = 2.0649e-16, No Iterations 5
diagonal:  Solving for rho, Initial residual = 0, Final residual = 0, No Iterations 0
time step continuity errors : sum local = 3.91229e-16, global = 7.31809e-17, cumulative = 3.91568e-15
PIMPLE: iteration 2
smoothSolver:  Solving for Ux, Initial residual = 0.000276771, Final residual = 1.29573e-17, No Iterations 1
smoothSolver:  Solving for e, Initial residual = 0.000169581, Final residual = 5.33251e-17, No Iterations 7
smoothSolver:  Solving for p, Initial residual = 2.01173e-05, Final residual = 2.16378e-16, No Iterations 5
diagonal:  Solving for rho, Initial residual = 0, Final residual = 0, No Iterations 0
time step continuity errors : sum local = 4.02186e-16, global = 4.5061e-17, cumulative = 3.96074e-15
smoothSolver:  Solving for p, Initial residual = 2.14969e-06, Final residual = 5.62635e-17, No Iterations 5
diagonal:  Solving for rho, Initial residual = 0, Final residual = 0, No Iterations 0
time step continuity errors : sum local = 1.11762e-16, global = -2.10219e-18, cumulative = 3.95864e-15
ExecutionTime = 0.14 s  ClockTime = 0 s

Courant Number mean: 0.00510701 max: 0.296209
Time = 0.00024

PIMPLE: iteration 1
diagonal:  Solving for rho, Initial residual = 0, Final residual = 0, No Iterations 0
smoothSolver:  Solving for Ux, Initial residual = 0.00778173, Final residual = 2.16971e-17, No Iterations 1
smoothSolver:  Solving for e, Initial residual = 0.0010714, Final residual = 5.27609e-16, No Iterations 7
smoothSolver:  Solving for p, Initial residual = 0.000290505, Final residual = 6.85744e-17, No Iterations 6
diagonal:  Solving for rho, Initial residual = 0, Final residual = 0, No Iterations 0
time step continuity errors : sum local = 1.57343e-16, global = -2.25552e-17, cumulative = 3.93609e-15
smoothSolver:  Solving for p, Initial residual = 1.66447e-05, Final residual = 2.05424e-16, No Iterations 5
diagonal:  Solving for rho, Initial residual = 0, Final residual = 0, No Iterations 0
time step continuity errors : sum local = 3.91254e-16, global = 6.49452e-17, cumulative = 4.00103e-15
PIMPLE: iteration 2
smoothSolver:  Solving for Ux, Initial residual = 0.000261373, Final residual = 1.61024e-17, No Iterations 1
smoothSolver:  Solving for e, Initial residual = 0.000176592, Final residual = 6.57641e-17, No Iterations 7
smoothSolver:  Solving for p, Initial residual = 2.06897e-05, Final residual = 2.1636e-16, No Iterations 5
diagonal:  Solving for rho, Initial residual = 0, Final residual = 0, No Iterations 0
time step continuity errors : sum local = 4.11905e-16, global = 4.28599e-17, cumulative = 4.04389e-15
smoothSolver:  Solving for p, Initial residual = 1.91932e-06, Final residual = 5.40417e-17, No Iterations 5
diagonal:  Solving for rho, Initial residual = 0, Final residual = 0, No Iterations 0
time step continuity errors : sum local = 1.11614e-16, global = -5.76247e-18, cumulative = 4.03813e-15
ExecutionTime = 0.15 s  ClockTime = 0 s

Courant Number mean: 0.00532476 max: 0.296112
Time = 0.00025

PIMPLE: iteration 1
diagonal:  Solving for rho, Initial residual = 0, Final residual = 0, No Iterations 0
smoothSolver:  Solving for Ux, Initial residual = 0.00746793, Final residual = 9.76547e-18, No Iterations 1
smoothSolver:  Solving for e, Initial residual = 0.00108086, Final residual = 5.58054e-16, No Iterations 7
smoothSolver:  Solving for p, Initial residual = 0.000290265, Final residual = 6.64479e-17, No Iterations 6
diagonal:  Solving for rho, Initial residual = 0, Final residual = 0, No Iterations 0
time step continuity errors : sum local = 1.53484e-16, global = -1.81035e-17, cumulative = 4.02003e-15
smoothSolver:  Solving for p, Initial residual = 1.6885e-05, Final residual = 2.06753e-16, No Iterations 5
diagonal:  Solving for rho, Initial residual = 0, Final residual = 0, No Iterations 0
time step continuity errors : sum local = 3.91304e-16, global = 6.13839e-17, cumulative = 4.08141e-15
PIMPLE: iteration 2
smoothSolver:  Solving for Ux, Initial residual = 0.00024823, Final residual = 1.43641e-17, No Iterations 1
smoothSolver:  Solving for e, Initial residual = 0.000164219, Final residual = 5.74624e-17, No Iterations 7
smoothSolver:  Solving for p, Initial residual = 2.05045e-05, Final residual = 2.1217e-16, No Iterations 5
diagonal:  Solving for rho, Initial residual = 0, Final residual = 0, No Iterations 0
time step continuity errors : sum local = 3.99688e-16, global = 4.61245e-17, cumulative = 4.12753e-15
smoothSolver:  Solving for p, Initial residual = 2.05789e-06, Final residual = 5.43308e-17, No Iterations 5
diagonal:  Solving for rho, Initial residual = 0, Final residual = 0, No Iterations 0
time step continuity errors : sum local = 1.14087e-16, global = -1.13518e-17, cumulative = 4.11618e-15
ExecutionTime = 0.15 s  ClockTime = 0 s

Courant Number mean: 0.0055426 max: 0.295947
Time = 0.00026

PIMPLE: iteration 1
diagonal:  Solving for rho, Initial residual = 0, Final residual = 0, No Iterations 0
smoothSolver:  Solving for Ux, Initial residual = 0.00718521, Final residual = 1.40367e-17, No Iterations 1
smoothSolver:  Solving for e, Initial residual = 0.00108085, Final residual = 5.57712e-16, No Iterations 7
smoothSolver:  Solving for p, Initial residual = 0.000290675, Final residual = 6.61709e-17, No Iterations 6
diagonal:  Solving for rho, Initial residual = 0, Final residual = 0, No Iterations 0
time step continuity errors : sum local = 1.52124e-16, global = -2.3866e-17, cumulative = 4.09232e-15
smoothSolver:  Solving for p, Initial residual = 1.59816e-05, Final residual = 2.03493e-16, No Iterations 5
diagonal:  Solving for rho, Initial residual = 0, Final residual = 0, No Iterations 0
time step continuity errors : sum local = 3.74363e-16, global = 5.67096e-17, cumulative = 4.14903e-15
PIMPLE: iteration 2
smoothSolver:  Solving for Ux, Initial residual = 0.000236131, Final residual = 1.63531e-17, No Iterations 1
smoothSolver:  Solving for e, Initial residual = 0.000170923, Final residual = 6.19278e-17, No Iterations 7
smoothSolver:  Solving for p, Initial residual = 2.02757e-05, Final residual = 2.12245e-16, No Iterations 5
diagonal:  Solving for rho, Initial residual = 0, Final residual = 0, No Iterations 0
time step continuity errors : sum local = 4.04807e-16, global = 4.45664e-17, cumulative = 4.19359e-15
smoothSolver:  Solving for p, Initial residual = 2.00979e-06, Final residual = 5.41653e-17, No Iterations 5
diagonal:  Solving for rho, Initial residual = 0, Final residual = 0, No Iterations 0
time step continuity errors : sum local = 1.11169e-16, global = -6.40549e-18, cumulative = 4.18719e-15
ExecutionTime = 0.15 s  ClockTime = 0 s

Courant Number mean: 0.00576054 max: 0.295713
Time = 0.00027

PIMPLE: iteration 1
diagonal:  Solving for rho, Initial residual = 0, Final residual = 0, No Iterations 0
smoothSolver:  Solving for Ux, Initial residual = 0.00691213, Final residual = 1.77248e-17, No Iterations 1
smoothSolver:  Solving for e, Initial residual = 0.00108142, Final residual = 6.09111e-16, No Iterations 7
smoothSolver:  Solving for p, Initial residual = 0.000289981, Final residual = 6.66084e-17, No Iterations 6
diagonal:  Solving for rho, Initial residual = 0, Final residual = 0, No Iterations 0
time step continuity errors : sum local = 1.54226e-16, global = -3.21016e-17, cumulative = 4.15509e-15
smoothSolver:  Solving for p, Initial residual = 1.61603e-05, Final residual = 2.06655e-16, No Iterations 5
diagonal:  Solving for rho, Initial residual = 0, Final residual = 0, No Iterations 0
time step continuity errors : sum local = 3.87198e-16, global = 5.23321e-17, cumulative = 4.20742e-15
PIMPLE: iteration 2
smoothSolver:  Solving for Ux, Initial residual = 0.000225011, Final residual = 1.72337e-17, No Iterations 1
smoothSolver:  Solving for e, Initial residual = 0.000162549, Final residual = 5.65591e-17, No Iterations 7
smoothSolver:  Solving for p, Initial residual = 2.02655e-05, Final residual = 2.10849e-16, No Iterations 5
diagonal:  Solving for rho, Initial residual = 0, Final residual = 0, No Iterations 0
time step continuity errors : sum local = 3.97981e-16, global = 4.14997e-17, cumulative = 4.24892e-15
smoothSolver:  Solving for p, Initial residual = 2.08362e-06, Final residual = 5.32013e-17, No Iterations 5
diagonal:  Solving for rho, Initial residual = 0, Final residual = 0, No Iterations 0
time step continuity errors : sum local = 1.15126e-16, global = -2.3495e-18, cumulative = 4.24657e-15
ExecutionTime = 0.15 s  ClockTime = 0 s

Courant Number mean: 0.00597857 max: 0.295667
Time = 0.00028

PIMPLE: iteration 1
diagonal:  Solving for rho, Initial residual = 0, Final residual = 0, No Iterations 0
smoothSolver:  Solving for Ux, Initial residual = 0.00666435, Final residual = 1.60553e-17, No Iterations 1
smoothSolver:  Solving for e, Initial residual = 0.00107916, Final residual = 6.09728e-16, No Iterations 7
smoothSolver:  Solving for p, Initial residual = 0.000289818, Final residual = 6.63261e-17, No Iterations 6
diagonal:  Solving for rho, Initial residual = 0, Final residual = 0, No Iterations 0
time step continuity errors : sum local = 1.43023e-16, global = -1.96122e-17, cumulative = 4.22696e-15
smoothSolver:  Solving for p, Initial residual = 1.5485e-05, Final residual = 1.993e-16, No Iterations 5
diagonal:  Solving for rho, Initial residual = 0, Final residual = 0, No Iterations 0
time step continuity errors : sum local = 3.66201e-16, global = 4.82019e-17, cumulative = 4.27516e-15
PIMPLE: iteration 2
smoothSolver:  Solving for Ux, Initial residual = 0.000214776, Final residual = 1.61854e-17, No Iterations 1
smoothSolver:  Solving for e, Initial residual = 0.000169331, Final residual = 6.5784e-17, No Iterations 7
smoothSolver:  Solving for p, Initial residual = 1.96813e-05, Final residual = 2.10127e-16, No Iterations 5
diagonal:  Solving for rho, Initial residual = 0, Final residual = 0, No Iterations 0
time step continuity errors : sum local = 4.02408e-16, global = 3.74189e-17, cumulative = 4.31258e-15
smoothSolver:  Solving for p, Initial residual = 1.91189e-06, Final residual = 5.33172e-17, No Iterations 5
diagonal:  Solving for rho, Initial residual = 0, Final residual = 0, No Iterations 0
time step continuity errors : sum local = 1.1384e-16, global = -7.741e-18, cumulative = 4.30484e-15
ExecutionTime = 0.16 s  ClockTime = 0 s

Courant Number mean: 0.00619668 max: 0.29552
Time = 0.00029

PIMPLE: iteration 1
diagonal:  Solving for rho, Initial residual = 0, Final residual = 0, No Iterations 0
smoothSolver:  Solving for Ux, Initial residual = 0.00643511, Final residual = 1.51856e-17, No Iterations 1
smoothSolver:  Solving for e, Initial residual = 0.00107886, Final residual = 6.19826e-16, No Iterations 7
smoothSolver:  Solving for p, Initial residual = 0.000290111, Final residual = 6.51073e-17, No Iterations 6
diagonal:  Solving for rho, Initial residual = 0, Final residual = 0, No Iterations 0
time step continuity errors : sum local = 1.52075e-16, global = -3.39565e-17, cumulative = 4.27088e-15
smoothSolver:  Solving for p, Initial residual = 1.58025e-05, Final residual = 2.02725e-16, No Iterations 5
diagonal:  Solving for rho, Initial residual = 0, Final residual = 0, No Iterations 0
time step continuity errors : sum local = 3.8475e-16, global = 4.02878e-17, cumulative = 4.31117e-15
PIMPLE: iteration 2
smoothSolver:  Solving for Ux, Initial residual = 0.000205445, Final residual = 1.69774e-17, No Iterations 1
smoothSolver:  Solving for e, Initial residual = 0.000162546, Final residual = 6.0665e-17, No Iterations 7
smoothSolver:  Solving for p, Initial residual = 1.9819e-05, Final residual = 2.10318e-16, No Iterations 5
diagonal:  Solving for rho, Initial residual = 0, Final residual = 0, No Iterations 0
time step continuity errors : sum local = 4.01048e-16, global = 3.24973e-17, cumulative = 4.34366e-15
smoothSolver:  Solving for p, Initial residual = 1.95753e-06, Final residual = 5.17653e-17, No Iterations 5
diagonal:  Solving for rho, Initial residual = 0, Final residual = 0, No Iterations 0
time step continuity errors : sum local = 1.14013e-16, global = -1.52347e-17, cumulative = 4.32843e-15
ExecutionTime = 0.16 s  ClockTime = 0 s

Courant Number mean: 0.00641486 max: 0.29539
Time = 0.0003

PIMPLE: iteration 1
diagonal:  Solving for rho, Initial residual = 0, Final residual = 0, No Iterations 0
smoothSolver:  Solving for Ux, Initial residual = 0.00621932, Final residual = 1.64709e-17, No Iterations 1
smoothSolver:  Solving for e, Initial residual = 0.00108482, Final residual = 6.23497e-16, No Iterations 7
smoothSolver:  Solving for p, Initial residual = 0.00029064, Final residual = 6.58351e-17, No Iterations 6
diagonal:  Solving for rho, Initial residual = 0, Final residual = 0, No Iterations 0
time step continuity errors : sum local = 1.47079e-16, global = -3.17307e-17, cumulative = 4.2967e-15
smoothSolver:  Solving for p, Initial residual = 1.53262e-05, Final residual = 1.99731e-16, No Iterations 5
diagonal:  Solving for rho, Initial residual = 0, Final residual = 0, No Iterations 0
time step continuity errors : sum local = 3.77924e-16, global = 3.93975e-17, cumulative = 4.3361e-15
PIMPLE: iteration 2
smoothSolver:  Solving for Ux, Initial residual = 0.000197088, Final residual = 1.32628e-17, No Iterations 1
smoothSolver:  Solving for e, Initial residual = 0.000161796, Final residual = 6.31052e-17, No Iterations 7
smoothSolver:  Solving for p, Initial residual = 1.88118e-05, Final residual = 2.05458e-16, No Iterations 5
diagonal:  Solving for rho, Initial residual = 0, Final residual = 0, No Iterations 0
time step continuity errors : sum local = 3.90042e-16, global = 4.05846e-17, cumulative = 4.37668e-15
smoothSolver:  Solving for p, Initial residual = 1.94372e-06, Final residual = 5.30109e-17, No Iterations 5
diagonal:  Solving for rho, Initial residual = 0, Final residual = 0, No Iterations 0
time step continuity errors : sum local = 1.18662e-16, global = -1.04367e-17, cumulative = 4.36624e-15
ExecutionTime = 0.17 s  ClockTime = 0 s

Courant Number mean: 0.0066331 max: 0.295318
Time = 0.00031

PIMPLE: iteration 1
diagonal:  Solving for rho, Initial residual = 0, Final residual = 0, No Iterations 0
smoothSolver:  Solving for Ux, Initial residual = 0.00601243, Final residual = 1.70053e-17, No Iterations 1
smoothSolver:  Solving for e, Initial residual = 0.00108634, Final residual = 6.58787e-16, No Iterations 7
smoothSolver:  Solving for p, Initial residual = 0.000290423, Final residual = 6.45165e-17, No Iterations 6
diagonal:  Solving for rho, Initial residual = 0, Final residual = 0, No Iterations 0
time step continuity errors : sum local = 1.39709e-16, global = -2.89607e-17, cumulative = 4.33728e-15
smoothSolver:  Solving for p, Initial residual = 1.53264e-05, Final residual = 2.00415e-16, No Iterations 5
diagonal:  Solving for rho, Initial residual = 0, Final residual = 0, No Iterations 0
time step continuity errors : sum local = 3.73225e-16, global = 3.14339e-17, cumulative = 4.36872e-15
PIMPLE: iteration 2
smoothSolver:  Solving for Ux, Initial residual = 0.000189306, Final residual = 1.34741e-17, No Iterations 1
smoothSolver:  Solving for e, Initial residual = 0.000162181, Final residual = 5.82835e-17, No Iterations 7
smoothSolver:  Solving for p, Initial residual = 1.95873e-05, Final residual = 2.08152e-16, No Iterations 5
diagonal:  Solving for rho, Initial residual = 0, Final residual = 0, No Iterations 0
time step continuity errors : sum local = 3.95978e-16, global = 2.78725e-17, cumulative = 4.39659e-15
smoothSolver:  Solving for p, Initial residual = 1.99783e-06, Final residual = 5.30782e-17, No Iterations 5
diagonal:  Solving for rho, Initial residual = 0, Final residual = 0, No Iterations 0
time step continuity errors : sum local = 1.11144e-16, global = -1.29099e-17, cumulative = 4.38368e-15
ExecutionTime = 0.17 s  ClockTime = 0 s

Courant Number mean: 0.00685141 max: 0.295197
Time = 0.00032

PIMPLE: iteration 1
diagonal:  Solving for rho, Initial residual = 0, Final residual = 0, No Iterations 0
smoothSolver:  Solving for Ux, Initial residual = 0.00582875, Final residual = 1.49941e-17, No Iterations 1
smoothSolver:  Solving for e, Initial residual = 0.00108898, Final residual = 6.63461e-16, No Iterations 7
smoothSolver:  Solving for p, Initial residual = 0.000290214, Final residual = 6.64364e-17, No Iterations 6
diagonal:  Solving for rho, Initial residual = 0, Final residual = 0, No Iterations 0
time step continuity errors : sum local = 1.47722e-16, global = -3.54404e-17, cumulative = 4.34824e-15
smoothSolver:  Solving for p, Initial residual = 1.51576e-05, Final residual = 2.00361e-16, No Iterations 5
diagonal:  Solving for rho, Initial residual = 0, Final residual = 0, No Iterations 0
time step continuity errors : sum local = 3.73893e-16, global = 2.04283e-17, cumulative = 4.36867e-15
PIMPLE: iteration 2
smoothSolver:  Solving for Ux, Initial residual = 0.000182, Final residual = 1.84828e-17, No Iterations 1
smoothSolver:  Solving for e, Initial residual = 0.000159119, Final residual = 6.93174e-17, No Iterations 7
smoothSolver:  Solving for p, Initial residual = 1.83971e-05, Final residual = 2.00813e-16, No Iterations 5
diagonal:  Solving for rho, Initial residual = 0, Final residual = 0, No Iterations 0
time step continuity errors : sum local = 3.81584e-16, global = 2.99005e-17, cumulative = 4.39857e-15
smoothSolver:  Solving for p, Initial residual = 1.87744e-06, Final residual = 5.69274e-17, No Iterations 5
diagonal:  Solving for rho, Initial residual = 0, Final residual = 0, No Iterations 0
time step continuity errors : sum local = 1.17178e-16, global = -1.39486e-17, cumulative = 4.38462e-15
ExecutionTime = 0.18 s  ClockTime = 0 s

Courant Number mean: 0.00706976 max: 0.295071
Time = 0.00033

PIMPLE: iteration 1
diagonal:  Solving for rho, Initial residual = 0, Final residual = 0, No Iterations 0
smoothSolver:  Solving for Ux, Initial residual = 0.00565357, Final residual = 1.48119e-17, No Iterations 1
smoothSolver:  Solving for e, Initial residual = 0.00108676, Final residual = 6.33691e-16, No Iterations 7
smoothSolver:  Solving for p, Initial residual = 0.000290576, Final residual = 6.8753e-17, No Iterations 6
diagonal:  Solving for rho, Initial residual = 0, Final residual = 0, No Iterations 0
time step continuity errors : sum local = 1.50195e-16, global = -3.72706e-17, cumulative = 4.34735e-15
smoothSolver:  Solving for p, Initial residual = 1.48639e-05, Final residual = 1.99225e-16, No Iterations 5
diagonal:  Solving for rho, Initial residual = 0, Final residual = 0, No Iterations 0
time step continuity errors : sum local = 3.73472e-16, global = 2.91091e-17, cumulative = 4.37646e-15
PIMPLE: iteration 2
smoothSolver:  Solving for Ux, Initial residual = 0.000175306, Final residual = 1.05909e-17, No Iterations 1
smoothSolver:  Solving for e, Initial residual = 0.000161718, Final residual = 6.42649e-17, No Iterations 7
smoothSolver:  Solving for p, Initial residual = 1.93026e-05, Final residual = 2.07829e-16, No Iterations 5
diagonal:  Solving for rho, Initial residual = 0, Final residual = 0, No Iterations 0
time step continuity errors : sum local = 3.9437e-16, global = 3.0964e-17, cumulative = 4.40742e-15
smoothSolver:  Solving for p, Initial residual = 1.86637e-06, Final residual = 5.65048e-17, No Iterations 5
diagonal:  Solving for rho, Initial residual = 0, Final residual = 0, No Iterations 0
time step continuity errors : sum local = 1.18514e-16, global = -5.44096e-19, cumulative = 4.40688e-15
ExecutionTime = 0.18 s  ClockTime = 0 s

Courant Number mean: 0.00728817 max: 0.295024
Time = 0.00034

PIMPLE: iteration 1
diagonal:  Solving for rho, Initial residual = 0, Final residual = 0, No Iterations 0
smoothSolver:  Solving for Ux, Initial residual = 0.00548981, Final residual = 1.93593e-17, No Iterations 1
smoothSolver:  Solving for e, Initial residual = 0.00108772, Final residual = 6.62513e-16, No Iterations 7
smoothSolver:  Solving for p, Initial residual = 0.000290608, Final residual = 6.65682e-17, No Iterations 6
diagonal:  Solving for rho, Initial residual = 0, Final residual = 0, No Iterations 0
time step continuity errors : sum local = 1.47079e-16, global = -3.27694e-17, cumulative = 4.37411e-15
smoothSolver:  Solving for p, Initial residual = 1.49885e-05, Final residual = 2.00296e-16, No Iterations 5
diagonal:  Solving for rho, Initial residual = 0, Final residual = 0, No Iterations 0
time step continuity errors : sum local = 3.78122e-16, global = 2.1838e-17, cumulative = 4.39595e-15
PIMPLE: iteration 2
smoothSolver:  Solving for Ux, Initial residual = 0.000169112, Final residual = 1.28233e-17, No Iterations 1
smoothSolver:  Solving for e, Initial residual = 0.000151121, Final residual = 6.86356e-17, No Iterations 7
smoothSolver:  Solving for p, Initial residual = 1.80567e-05, Final residual = 1.97313e-16, No Iterations 5
diagonal:  Solving for rho, Initial residual = 0, Final residual = 0, No Iterations 0
time step continuity errors : sum local = 3.76588e-16, global = 2.82682e-17, cumulative = 4.42421e-15
smoothSolver:  Solving for p, Initial residual = 1.88086e-06, Final residual = 5.53737e-17, No Iterations 5
diagonal:  Solving for rho, Initial residual = 0, Final residual = 0, No Iterations 0
time step continuity errors : sum local = 1.14928e-16, global = -1.48142e-17, cumulative = 4.4094e-15
ExecutionTime = 0.18 s  ClockTime = 0 s

Courant Number mean: 0.00750661 max: 0.294949
Time = 0.00035

PIMPLE: iteration 1
diagonal:  Solving for rho, Initial residual = 0, Final residual = 0, No Iterations 0
smoothSolver:  Solving for Ux, Initial residual = 0.00533124, Final residual = 1.45456e-17, No Iterations 1
smoothSolver:  Solving for e, Initial residual = 0.00108496, Final residual = 6.74364e-16, No Iterations 7
smoothSolver:  Solving for p, Initial residual = 0.000290243, Final residual = 6.69272e-17, No Iterations 6
diagonal:  Solving for rho, Initial residual = 0, Final residual = 0, No Iterations 0
time step continuity errors : sum local = 1.49824e-16, global = -4.87213e-17, cumulative = 4.36068e-15
smoothSolver:  Solving for p, Initial residual = 1.4454e-05, Final residual = 1.94835e-16, No Iterations 5
diagonal:  Solving for rho, Initial residual = 0, Final residual = 0, No Iterations 0
time step continuity errors : sum local = 3.70059e-16, global = 1.09066e-17, cumulative = 4.37159e-15
PIMPLE: iteration 2
smoothSolver:  Solving for Ux, Initial residual = 0.000163354, Final residual = 1.52934e-17, No Iterations 1
smoothSolver:  Solving for e, Initial residual = 0.000159343, Final residual = 6.41895e-17, No Iterations 7
smoothSolver:  Solving for p, Initial residual = 1.88065e-05, Final residual = 2.06412e-16, No Iterations 5
diagonal:  Solving for rho, Initial residual = 0, Final residual = 0, No Iterations 0
time step continuity errors : sum local = 3.93208e-16, global = 2.6537e-17, cumulative = 4.39812e-15
smoothSolver:  Solving for p, Initial residual = 1.85414e-06, Final residual = 5.46721e-17, No Iterations 5
diagonal:  Solving for rho, Initial residual = 0, Final residual = 0, No Iterations 0
time step continuity errors : sum local = 1.15892e-16, global = -5.93559e-18, cumulative = 4.39219e-15
ExecutionTime = 0.19 s  ClockTime = 0 s

Courant Number mean: 0.00772511 max: 0.294851
Time = 0.00036

PIMPLE: iteration 1
diagonal:  Solving for rho, Initial residual = 0, Final residual = 0, No Iterations 0
smoothSolver:  Solving for Ux, Initial residual = 0.0051846, Final residual = 1.3321e-17, No Iterations 1
smoothSolver:  Solving for e, Initial residual = 0.00108724, Final residual = 7.01196e-16, No Iterations 7
smoothSolver:  Solving for p, Initial residual = 0.000290226, Final residual = 6.59749e-17, No Iterations 6
diagonal:  Solving for rho, Initial residual = 0, Final residual = 0, No Iterations 0
time step continuity errors : sum local = 1.49107e-16, global = -3.62318e-17, cumulative = 4.35596e-15
smoothSolver:  Solving for p, Initial residual = 1.4805e-05, Final residual = 1.97968e-16, No Iterations 5
diagonal:  Solving for rho, Initial residual = 0, Final residual = 0, No Iterations 0
time step continuity errors : sum local = 3.72879e-16, global = 2.54983e-17, cumulative = 4.38145e-15
PIMPLE: iteration 2
smoothSolver:  Solving for Ux, Initial residual = 0.000157982, Final residual = 2.06321e-17, No Iterations 1
smoothSolver:  Solving for e, Initial residual = 0.000147914, Final residual = 7.00796e-17, No Iterations 7
smoothSolver:  Solving for p, Initial residual = 1.81105e-05, Final residual = 1.97103e-16, No Iterations 5
diagonal:  Solving for rho, Initial residual = 0, Final residual = 0, No Iterations 0
time step continuity errors : sum local = 3.78023e-16, global = 2.70317e-17, cumulative = 4.40849e-15
smoothSolver:  Solving for p, Initial residual = 1.78251e-06, Final residual = 5.36416e-17, No Iterations 5
diagonal:  Solving for rho, Initial residual = 0, Final residual = 0, No Iterations 0
time step continuity errors : sum local = 1.17747e-16, global = -1.45669e-17, cumulative = 4.39392e-15
ExecutionTime = 0.19 s  ClockTime = 0 s

Courant Number mean: 0.00794364 max: 0.294797
Time = 0.00037

PIMPLE: iteration 1
diagonal:  Solving for rho, Initial residual = 0, Final residual = 0, No Iterations 0
smoothSolver:  Solving for Ux, Initial residual = 0.00504652, Final residual = 1.8773e-17, No Iterations 1
smoothSolver:  Solving for e, Initial residual = 0.00108874, Final residual = 6.78007e-16, No Iterations 7
smoothSolver:  Solving for p, Initial residual = 0.000290488, Final residual = 6.64513e-17, No Iterations 6
diagonal:  Solving for rho, Initial residual = 0, Final residual = 0, No Iterations 0
time step continuity errors : sum local = 1.49923e-16, global = -3.56135e-17, cumulative = 4.3583e-15
smoothSolver:  Solving for p, Initial residual = 1.41223e-05, Final residual = 1.9273e-16, No Iterations 5
diagonal:  Solving for rho, Initial residual = 0, Final residual = 0, No Iterations 0
time step continuity errors : sum local = 3.6358e-16, global = 1.31325e-17, cumulative = 4.37144e-15
PIMPLE: iteration 2
smoothSolver:  Solving for Ux, Initial residual = 0.000152928, Final residual = 1.68288e-17, No Iterations 1
smoothSolver:  Solving for e, Initial residual = 0.000156522, Final residual = 6.5492e-17, No Iterations 7
smoothSolver:  Solving for p, Initial residual = 1.83392e-05, Final residual = 2.00338e-16, No Iterations 5
diagonal:  Solving for rho, Initial residual = 0, Final residual = 0, No Iterations 0
time step continuity errors : sum local = 3.8339e-16, global = 3.54157e-17, cumulative = 4.40685e-15
smoothSolver:  Solving for p, Initial residual = 1.81651e-06, Final residual = 5.49038e-17, No Iterations 5
diagonal:  Solving for rho, Initial residual = 0, Final residual = 0, No Iterations 0
time step continuity errors : sum local = 1.20245e-16, global = -7.32056e-18, cumulative = 4.39953e-15
ExecutionTime = 0.2 s  ClockTime = 0 s

Courant Number mean: 0.00816221 max: 0.294771
Time = 0.00038

PIMPLE: iteration 1
diagonal:  Solving for rho, Initial residual = 0, Final residual = 0, No Iterations 0
smoothSolver:  Solving for Ux, Initial residual = 0.00491788, Final residual = 1.64176e-17, No Iterations 1
smoothSolver:  Solving for e, Initial residual = 0.00108931, Final residual = 6.9499e-16, No Iterations 7
smoothSolver:  Solving for p, Initial residual = 0.000290488, Final residual = 6.52956e-17, No Iterations 6
diagonal:  Solving for rho, Initial residual = 0, Final residual = 0, No Iterations 0
time step continuity errors : sum local = 1.41539e-16, global = -3.96942e-17, cumulative = 4.35984e-15
smoothSolver:  Solving for p, Initial residual = 1.45485e-05, Final residual = 1.9796e-16, No Iterations 5
diagonal:  Solving for rho, Initial residual = 0, Final residual = 0, No Iterations 0
time step continuity errors : sum local = 3.66918e-16, global = 1.82519e-17, cumulative = 4.37809e-15
PIMPLE: iteration 2
smoothSolver:  Solving for Ux, Initial residual = 0.000148233, Final residual = 1.6617e-17, No Iterations 1
smoothSolver:  Solving for e, Initial residual = 0.00014789, Final residual = 6.85822e-17, No Iterations 7
smoothSolver:  Solving for p, Initial residual = 1.82088e-05, Final residual = 1.96136e-16, No Iterations 5
diagonal:  Solving for rho, Initial residual = 0, Final residual = 0, No Iterations 0
time step continuity errors : sum local = 3.69911e-16, global = 3.16812e-17, cumulative = 4.40977e-15
smoothSolver:  Solving for p, Initial residual = 1.78386e-06, Final residual = 5.28523e-17, No Iterations 5
diagonal:  Solving for rho, Initial residual = 0, Final residual = 0, No Iterations 0
time step continuity errors : sum local = 1.10971e-16, global = -2.79467e-18, cumulative = 4.40698e-15
ExecutionTime = 0.2 s  ClockTime = 0 s

Courant Number mean: 0.0083808 max: 0.29472
Time = 0.00039

PIMPLE: iteration 1
diagonal:  Solving for rho, Initial residual = 0, Final residual = 0, No Iterations 0
smoothSolver:  Solving for Ux, Initial residual = 0.00479084, Final residual = 1.53542e-17, No Iterations 1
smoothSolver:  Solving for e, Initial residual = 0.00108806, Final residual = 7.04995e-16, No Iterations 7
smoothSolver:  Solving for p, Initial residual = 0.000290204, Final residual = 6.51595e-17, No Iterations 6
diagonal:  Solving for rho, Initial residual = 0, Final residual = 0, No Iterations 0
time step continuity errors : sum local = 1.44037e-16, global = -3.48221e-17, cumulative = 4.37215e-15
smoothSolver:  Solving for p, Initial residual = 1.41576e-05, Final residual = 1.9312e-16, No Iterations 5
diagonal:  Solving for rho, Initial residual = 0, Final residual = 0, No Iterations 0
time step continuity errors : sum local = 3.64074e-16, global = 1.20938e-17, cumulative = 4.38425e-15
PIMPLE: iteration 2
smoothSolver:  Solving for Ux, Initial residual = 0.000143791, Final residual = 1.31406e-17, No Iterations 1
smoothSolver:  Solving for e, Initial residual = 0.000154138, Final residual = 6.62496e-17, No Iterations 7
smoothSolver:  Solving for p, Initial residual = 1.79887e-05, Final residual = 1.9739e-16, No Iterations 5
diagonal:  Solving for rho, Initial residual = 0, Final residual = 0, No Iterations 0
time step continuity errors : sum local = 3.70034e-16, global = 3.6949e-17, cumulative = 4.4212e-15
smoothSolver:  Solving for p, Initial residual = 1.8577e-06, Final residual = 5.28101e-17, No Iterations 5
diagonal:  Solving for rho, Initial residual = 0, Final residual = 0, No Iterations 0
time step continuity errors : sum local = 1.18737e-16, global = -9.32382e-18, cumulative = 4.41187e-15
ExecutionTime = 0.21 s  ClockTime = 0 s

Courant Number mean: 0.00859943 max: 0.294644
Time = 0.0004

PIMPLE: iteration 1
diagonal:  Solving for rho, Initial residual = 0, Final residual = 0, No Iterations 0
smoothSolver:  Solving for Ux, Initial residual = 0.00467023, Final residual = 1.57993e-17, No Iterations 1
smoothSolver:  Solving for e, Initial residual = 0.00108634, Final residual = 7.27017e-16, No Iterations 7
smoothSolver:  Solving for p, Initial residual = 0.000290253, Final residual = 6.55297e-17, No Iterations 6
diagonal:  Solving for rho, Initial residual = 0, Final residual = 0, No Iterations 0
time step continuity errors : sum local = 1.50368e-16, global = -2.80457e-17, cumulative = 4.38383e-15
smoothSolver:  Solving for p, Initial residual = 1.43008e-05, Final residual = 1.93501e-16, No Iterations 5
diagonal:  Solving for rho, Initial residual = 0, Final residual = 0, No Iterations 0
time step continuity errors : sum local = 3.6724e-16, global = 1.55067e-17, cumulative = 4.39933e-15
PIMPLE: iteration 2
smoothSolver:  Solving for Ux, Initial residual = 0.000139602, Final residual = 1.27501e-17, No Iterations 1
smoothSolver:  Solving for e, Initial residual = 0.000150648, Final residual = 7.27184e-17, No Iterations 7
smoothSolver:  Solving for p, Initial residual = 1.81784e-05, Final residual = 1.97564e-16, No Iterations 5
diagonal:  Solving for rho, Initial residual = 0, Final residual = 0, No Iterations 0
time step continuity errors : sum local = 3.79556e-16, global = 3.78146e-17, cumulative = 4.43715e-15
smoothSolver:  Solving for p, Initial residual = 1.72785e-06, Final residual = 5.35261e-17, No Iterations 5
diagonal:  Solving for rho, Initial residual = 0, Final residual = 0, No Iterations 0
time step continuity errors : sum local = 1.15645e-16, global = -1.17228e-17, cumulative = 4.42543e-15
ExecutionTime = 0.21 s  ClockTime = 0 s

Courant Number mean: 0.00881809 max: 0.294655
Time = 0.00041

PIMPLE: iteration 1
diagonal:  Solving for rho, Initial residual = 0, Final residual = 0, No Iterations 0
smoothSolver:  Solving for Ux, Initial residual = 0.00455995, Final residual = 1.47828e-17, No Iterations 1
smoothSolver:  Solving for e, Initial residual = 0.00108898, Final residual = 7.08005e-16, No Iterations 7
smoothSolver:  Solving for p, Initial residual = 0.000290441, Final residual = 6.46657e-17, No Iterations 6
diagonal:  Solving for rho, Initial residual = 0, Final residual = 0, No Iterations 0
time step continuity errors : sum local = 1.45991e-16, global = -4.05351e-17, cumulative = 4.38489e-15
smoothSolver:  Solving for p, Initial residual = 1.4135e-05, Final residual = 1.90982e-16, No Iterations 5
diagonal:  Solving for rho, Initial residual = 0, Final residual = 0, No Iterations 0
time step continuity errors : sum local = 3.63901e-16, global = 1.15744e-17, cumulative = 4.39647e-15
PIMPLE: iteration 2
smoothSolver:  Solving for Ux, Initial residual = 0.000135747, Final residual = 1.68871e-17, No Iterations 1
smoothSolver:  Solving for e, Initial residual = 0.000150612, Final residual = 6.79968e-17, No Iterations 7
smoothSolver:  Solving for p, Initial residual = 1.74676e-05, Final residual = 1.9262e-16, No Iterations 5
diagonal:  Solving for rho, Initial residual = 0, Final residual = 0, No Iterations 0
time step continuity errors : sum local = 3.68328e-16, global = 3.91502e-17, cumulative = 4.43562e-15
smoothSolver:  Solving for p, Initial residual = 1.80846e-06, Final residual = 5.28052e-17, No Iterations 5
diagonal:  Solving for rho, Initial residual = 0, Final residual = 0, No Iterations 0
time step continuity errors : sum local = 1.18192e-16, global = -1.34293e-17, cumulative = 4.42219e-15
ExecutionTime = 0.21 s  ClockTime = 0 s

Courant Number mean: 0.00903678 max: 0.29464
Time = 0.00042

PIMPLE: iteration 1
diagonal:  Solving for rho, Initial residual = 0, Final residual = 0, No Iterations 0
smoothSolver:  Solving for Ux, Initial residual = 0.00445501, Final residual = 1.43278e-17, No Iterations 1
smoothSolver:  Solving for e, Initial residual = 0.00109014, Final residual = 7.18585e-16, No Iterations 7
smoothSolver:  Solving for p, Initial residual = 0.000290592, Final residual = 6.16049e-17, No Iterations 6
diagonal:  Solving for rho, Initial residual = 0, Final residual = 0, No Iterations 0
time step continuity errors : sum local = 1.38918e-16, global = -3.06919e-17, cumulative = 4.39149e-15
smoothSolver:  Solving for p, Initial residual = 1.40051e-05, Final residual = 1.89944e-16, No Iterations 5
diagonal:  Solving for rho, Initial residual = 0, Final residual = 0, No Iterations 0
time step continuity errors : sum local = 3.57149e-16, global = 1.67433e-17, cumulative = 4.40824e-15
PIMPLE: iteration 2
smoothSolver:  Solving for Ux, Initial residual = 0.000132028, Final residual = 1.58387e-17, No Iterations 1
smoothSolver:  Solving for e, Initial residual = 0.000152107, Final residual = 6.88881e-17, No Iterations 7
smoothSolver:  Solving for p, Initial residual = 1.81453e-05, Final residual = 1.97066e-16, No Iterations 5
diagonal:  Solving for rho, Initial residual = 0, Final residual = 0, No Iterations 0
time step continuity errors : sum local = 3.76811e-16, global = 2.62155e-17, cumulative = 4.43445e-15
smoothSolver:  Solving for p, Initial residual = 1.77013e-06, Final residual = 5.15778e-17, No Iterations 5
diagonal:  Solving for rho, Initial residual = 0, Final residual = 0, No Iterations 0
time step continuity errors : sum local = 1.13221e-16, global = -1.39486e-17, cumulative = 4.4205e-15
ExecutionTime = 0.22 s  ClockTime = 0 s

Courant Number mean: 0.0092555 max: 0.294589
Time = 0.00043

PIMPLE: iteration 1
diagonal:  Solving for rho, Initial residual = 0, Final residual = 0, No Iterations 0
smoothSolver:  Solving for Ux, Initial residual = 0.00435121, Final residual = 1.39255e-17, No Iterations 1
smoothSolver:  Solving for e, Initial residual = 0.0010909, Final residual = 7.22386e-16, No Iterations 7
smoothSolver:  Solving for p, Initial residual = 0.000290597, Final residual = 6.32908e-17, No Iterations 6
diagonal:  Solving for rho, Initial residual = 0, Final residual = 0, No Iterations 0
[...]
diagonal:  Solving for rho, Initial residual = 0, Final residual = 0, No Iterations 0
time step continuity errors : sum local = 1.44568e-16, global = -4.40513e-17, cumulative = -1.25706e-14
smoothSolver:  Solving for p, Initial residual = 3.41505e-07, Final residual = 5.08506e-16, No Iterations 4
diagonal:  Solving for rho, Initial residual = 0, Final residual = 0, No Iterations 0
time step continuity errors : sum local = 5.09092e-16, global = 3.06857e-16, cumulative = -1.22637e-14
PIMPLE: iteration 2
smoothSolver:  Solving for Ux, Initial residual = 2.05602e-07, Final residual = 4.45617e-17, No Iterations 1
smoothSolver:  Solving for e, Initial residual = 5.01349e-06, Final residual = 4.06926e-16, No Iterations 6
smoothSolver:  Solving for p, Initial residual = 1.52053e-06, Final residual = 7.72295e-17, No Iterations 5
diagonal:  Solving for rho, Initial residual = 0, Final residual = 0, No Iterations 0
time step continuity errors : sum local = 1.41965e-16, global = -2.16252e-17, cumulative = -1.22853e-14
smoothSolver:  Solving for p, Initial residual = 3.81873e-08, Final residual = 8.21584e-17, No Iterations 4
diagonal:  Solving for rho, Initial residual = 0, Final residual = 0, No Iterations 0
time step continuity errors : sum local = 1.41164e-16, global = -1.58184e-17, cumulative = -1.23012e-14
ExecutionTime = 4.23 s  ClockTime = 4 s

Courant Number mean: 0.203919 max: 0.293413
Time = 0.00991

PIMPLE: iteration 1
diagonal:  Solving for rho, Initial residual = 0, Final residual = 0, No Iterations 0
smoothSolver:  Solving for Ux, Initial residual = 0.000340197, Final residual = 4.49341e-17, No Iterations 1
smoothSolver:  Solving for e, Initial residual = 0.000650056, Final residual = 7.75754e-16, No Iterations 7
smoothSolver:  Solving for p, Initial residual = 0.000348391, Final residual = 8.71362e-17, No Iterations 6
diagonal:  Solving for rho, Initial residual = 0, Final residual = 0, No Iterations 0
time step continuity errors : sum local = 1.47292e-16, global = -4.25555e-17, cumulative = -1.23437e-14
smoothSolver:  Solving for p, Initial residual = 3.41155e-07, Final residual = 5.0588e-16, No Iterations 4
diagonal:  Solving for rho, Initial residual = 0, Final residual = 0, No Iterations 0
time step continuity errors : sum local = 5.14771e-16, global = 2.9949e-16, cumulative = -1.20442e-14
PIMPLE: iteration 2
smoothSolver:  Solving for Ux, Initial residual = 2.05521e-07, Final residual = 4.50728e-17, No Iterations 1
smoothSolver:  Solving for e, Initial residual = 5.00829e-06, Final residual = 4.06808e-16, No Iterations 6
smoothSolver:  Solving for p, Initial residual = 1.51958e-06, Final residual = 7.29146e-17, No Iterations 5
diagonal:  Solving for rho, Initial residual = 0, Final residual = 0, No Iterations 0
time step continuity errors : sum local = 1.34375e-16, global = -7.40966e-18, cumulative = -1.20516e-14
smoothSolver:  Solving for p, Initial residual = 3.8151e-08, Final residual = 8.65266e-17, No Iterations 4
diagonal:  Solving for rho, Initial residual = 0, Final residual = 0, No Iterations 0
time step continuity errors : sum local = 1.51698e-16, global = -8.31083e-18, cumulative = -1.206e-14
ExecutionTime = 4.23 s  ClockTime = 4 s

Courant Number mean: 0.203977 max: 0.293413
Time = 0.00992

PIMPLE: iteration 1
diagonal:  Solving for rho, Initial residual = 0, Final residual = 0, No Iterations 0
smoothSolver:  Solving for Ux, Initial residual = 0.000340425, Final residual = 4.78586e-17, No Iterations 1
smoothSolver:  Solving for e, Initial residual = 0.000650194, Final residual = 7.75961e-16, No Iterations 7
smoothSolver:  Solving for p, Initial residual = 0.0003486, Final residual = 8.60752e-17, No Iterations 6
diagonal:  Solving for rho, Initial residual = 0, Final residual = 0, No Iterations 0
time step continuity errors : sum local = 1.43707e-16, global = -5.0573e-17, cumulative = -1.21105e-14
smoothSolver:  Solving for p, Initial residual = 3.40712e-07, Final residual = 5.04442e-16, No Iterations 4
diagonal:  Solving for rho, Initial residual = 0, Final residual = 0, No Iterations 0
time step continuity errors : sum local = 5.10437e-16, global = 3.01535e-16, cumulative = -1.1809e-14
PIMPLE: iteration 2
smoothSolver:  Solving for Ux, Initial residual = 2.05441e-07, Final residual = 4.54699e-17, No Iterations 1
smoothSolver:  Solving for e, Initial residual = 5.00839e-06, Final residual = 4.07218e-16, No Iterations 6
smoothSolver:  Solving for p, Initial residual = 1.52003e-06, Final residual = 7.59193e-17, No Iterations 5
diagonal:  Solving for rho, Initial residual = 0, Final residual = 0, No Iterations 0
time step continuity errors : sum local = 1.34594e-16, global = -1.30188e-17, cumulative = -1.1822e-14
smoothSolver:  Solving for p, Initial residual = 3.80422e-08, Final residual = 8.42099e-17, No Iterations 4
diagonal:  Solving for rho, Initial residual = 0, Final residual = 0, No Iterations 0
time step continuity errors : sum local = 1.43507e-16, global = -1.01146e-17, cumulative = -1.18321e-14
ExecutionTime = 4.23 s  ClockTime = 4 s

Courant Number mean: 0.204035 max: 0.293413
Time = 0.00993

PIMPLE: iteration 1
diagonal:  Solving for rho, Initial residual = 0, Final residual = 0, No Iterations 0
smoothSolver:  Solving for Ux, Initial residual = 0.000340654, Final residual = 4.33594e-17, No Iterations 1
smoothSolver:  Solving for e, Initial residual = 0.00065034, Final residual = 7.76181e-16, No Iterations 7
smoothSolver:  Solving for p, Initial residual = 0.000348809, Final residual = 8.71915e-17, No Iterations 6
diagonal:  Solving for rho, Initial residual = 0, Final residual = 0, No Iterations 0
time step continuity errors : sum local = 1.44729e-16, global = -4.87772e-17, cumulative = -1.18809e-14
smoothSolver:  Solving for p, Initial residual = 3.40347e-07, Final residual = 5.06213e-16, No Iterations 4
diagonal:  Solving for rho, Initial residual = 0, Final residual = 0, No Iterations 0
time step continuity errors : sum local = 5.13814e-16, global = 2.95268e-16, cumulative = -1.15856e-14
PIMPLE: iteration 2
smoothSolver:  Solving for Ux, Initial residual = 2.05359e-07, Final residual = 4.77323e-17, No Iterations 1
smoothSolver:  Solving for e, Initial residual = 5.00588e-06, Final residual = 4.07574e-16, No Iterations 6
smoothSolver:  Solving for p, Initial residual = 1.51997e-06, Final residual = 7.40533e-17, No Iterations 5
diagonal:  Solving for rho, Initial residual = 0, Final residual = 0, No Iterations 0
time step continuity errors : sum local = 1.33912e-16, global = -6.71063e-18, cumulative = -1.15923e-14
smoothSolver:  Solving for p, Initial residual = 3.80202e-08, Final residual = 8.24053e-17, No Iterations 4
diagonal:  Solving for rho, Initial residual = 0, Final residual = 0, No Iterations 0
time step continuity errors : sum local = 1.41324e-16, global = -1.03163e-17, cumulative = -1.16027e-14
ExecutionTime = 4.24 s  ClockTime = 4 s

Courant Number mean: 0.204093 max: 0.293412
Time = 0.00994

PIMPLE: iteration 1
diagonal:  Solving for rho, Initial residual = 0, Final residual = 0, No Iterations 0
smoothSolver:  Solving for Ux, Initial residual = 0.000340883, Final residual = 4.67319e-17, No Iterations 1
smoothSolver:  Solving for e, Initial residual = 0.000650482, Final residual = 7.76697e-16, No Iterations 7
smoothSolver:  Solving for p, Initial residual = 0.000349018, Final residual = 8.52969e-17, No Iterations 6
diagonal:  Solving for rho, Initial residual = 0, Final residual = 0, No Iterations 0
time step continuity errors : sum local = 1.42345e-16, global = -4.19723e-17, cumulative = -1.16446e-14
smoothSolver:  Solving for p, Initial residual = 3.39934e-07, Final residual = 5.05897e-16, No Iterations 4
diagonal:  Solving for rho, Initial residual = 0, Final residual = 0, No Iterations 0
time step continuity errors : sum local = 5.07074e-16, global = 2.99115e-16, cumulative = -1.13455e-14
PIMPLE: iteration 2
smoothSolver:  Solving for Ux, Initial residual = 2.05273e-07, Final residual = 4.65737e-17, No Iterations 1
smoothSolver:  Solving for e, Initial residual = 5.00012e-06, Final residual = 4.07463e-16, No Iterations 6
smoothSolver:  Solving for p, Initial residual = 1.51924e-06, Final residual = 7.43167e-17, No Iterations 5
diagonal:  Solving for rho, Initial residual = 0, Final residual = 0, No Iterations 0
time step continuity errors : sum local = 1.40342e-16, global = -1.93333e-17, cumulative = -1.13648e-14
smoothSolver:  Solving for p, Initial residual = 3.79516e-08, Final residual = 8.62735e-17, No Iterations 4
diagonal:  Solving for rho, Initial residual = 0, Final residual = 0, No Iterations 0
time step continuity errors : sum local = 1.50259e-16, global = -1.56269e-17, cumulative = -1.13805e-14
ExecutionTime = 4.25 s  ClockTime = 4 s

Courant Number mean: 0.20415 max: 0.293413
Time = 0.00995

PIMPLE: iteration 1
diagonal:  Solving for rho, Initial residual = 0, Final residual = 0, No Iterations 0
smoothSolver:  Solving for Ux, Initial residual = 0.000341113, Final residual = 4.81863e-17, No Iterations 1
smoothSolver:  Solving for e, Initial residual = 0.000650619, Final residual = 7.78138e-16, No Iterations 7
smoothSolver:  Solving for p, Initial residual = 0.000349227, Final residual = 8.35413e-17, No Iterations 6
diagonal:  Solving for rho, Initial residual = 0, Final residual = 0, No Iterations 0
time step continuity errors : sum local = 1.46273e-16, global = -3.76702e-17, cumulative = -1.14181e-14
smoothSolver:  Solving for p, Initial residual = 3.39445e-07, Final residual = 5.0248e-16, No Iterations 4
diagonal:  Solving for rho, Initial residual = 0, Final residual = 0, No Iterations 0
time step continuity errors : sum local = 5.00432e-16, global = 2.98055e-16, cumulative = -1.11201e-14
PIMPLE: iteration 2
smoothSolver:  Solving for Ux, Initial residual = 2.05184e-07, Final residual = 4.58141e-17, No Iterations 1
smoothSolver:  Solving for e, Initial residual = 4.99809e-06, Final residual = 4.06271e-16, No Iterations 6
smoothSolver:  Solving for p, Initial residual = 1.51916e-06, Final residual = 7.71089e-17, No Iterations 5
diagonal:  Solving for rho, Initial residual = 0, Final residual = 0, No Iterations 0
time step continuity errors : sum local = 1.33048e-16, global = -1.12209e-17, cumulative = -1.11313e-14
smoothSolver:  Solving for p, Initial residual = 3.78633e-08, Final residual = 8.70529e-17, No Iterations 4
diagonal:  Solving for rho, Initial residual = 0, Final residual = 0, No Iterations 0
time step continuity errors : sum local = 1.51382e-16, global = -1.27237e-17, cumulative = -1.1144e-14
ExecutionTime = 4.25 s  ClockTime = 4 s

Courant Number mean: 0.204208 max: 0.293412
Time = 0.00996

PIMPLE: iteration 1
diagonal:  Solving for rho, Initial residual = 0, Final residual = 0, No Iterations 0
smoothSolver:  Solving for Ux, Initial residual = 0.000341343, Final residual = 4.58777e-17, No Iterations 1
smoothSolver:  Solving for e, Initial residual = 0.000650768, Final residual = 7.76927e-16, No Iterations 7
smoothSolver:  Solving for p, Initial residual = 0.000349438, Final residual = 8.22356e-17, No Iterations 6
diagonal:  Solving for rho, Initial residual = 0, Final residual = 0, No Iterations 0
time step continuity errors : sum local = 1.51904e-16, global = -4.54911e-17, cumulative = -1.11895e-14
smoothSolver:  Solving for p, Initial residual = 3.38954e-07, Final residual = 4.99752e-16, No Iterations 4
diagonal:  Solving for rho, Initial residual = 0, Final residual = 0, No Iterations 0
time step continuity errors : sum local = 5.05412e-16, global = 2.87576e-16, cumulative = -1.0902e-14
PIMPLE: iteration 2
smoothSolver:  Solving for Ux, Initial residual = 2.05091e-07, Final residual = 4.56438e-17, No Iterations 1
smoothSolver:  Solving for e, Initial residual = 4.99785e-06, Final residual = 4.07277e-16, No Iterations 6
smoothSolver:  Solving for p, Initial residual = 1.51961e-06, Final residual = 7.02724e-17, No Iterations 5
diagonal:  Solving for rho, Initial residual = 0, Final residual = 0, No Iterations 0
time step continuity errors : sum local = 1.35171e-16, global = -1.57315e-17, cumulative = -1.09177e-14
smoothSolver:  Solving for p, Initial residual = 3.7839e-08, Final residual = 8.59466e-17, No Iterations 4
diagonal:  Solving for rho, Initial residual = 0, Final residual = 0, No Iterations 0
time step continuity errors : sum local = 1.49199e-16, global = -1.57315e-17, cumulative = -1.09334e-14
ExecutionTime = 4.26 s  ClockTime = 4 s

Courant Number mean: 0.204266 max: 0.293412
Time = 0.00997

PIMPLE: iteration 1
diagonal:  Solving for rho, Initial residual = 0, Final residual = 0, No Iterations 0
smoothSolver:  Solving for Ux, Initial residual = 0.000341574, Final residual = 4.4753e-17, No Iterations 1
smoothSolver:  Solving for e, Initial residual = 0.000650918, Final residual = 7.77174e-16, No Iterations 7
smoothSolver:  Solving for p, Initial residual = 0.000349649, Final residual = 8.38825e-17, No Iterations 6
diagonal:  Solving for rho, Initial residual = 0, Final residual = 0, No Iterations 0
time step continuity errors : sum local = 1.39699e-16, global = -4.30924e-17, cumulative = -1.09765e-14
smoothSolver:  Solving for p, Initial residual = 3.38549e-07, Final residual = 4.99071e-16, No Iterations 4
diagonal:  Solving for rho, Initial residual = 0, Final residual = 0, No Iterations 0
time step continuity errors : sum local = 5.01775e-16, global = 2.91324e-16, cumulative = -1.06852e-14
PIMPLE: iteration 2
smoothSolver:  Solving for Ux, Initial residual = 2.05016e-07, Final residual = 4.65319e-17, No Iterations 1
smoothSolver:  Solving for e, Initial residual = 4.99482e-06, Final residual = 4.08219e-16, No Iterations 6
smoothSolver:  Solving for p, Initial residual = 1.51935e-06, Final residual = 7.88497e-17, No Iterations 5
diagonal:  Solving for rho, Initial residual = 0, Final residual = 0, No Iterations 0
time step continuity errors : sum local = 1.41203e-16, global = -2.03436e-17, cumulative = -1.07055e-14
smoothSolver:  Solving for p, Initial residual = 3.78568e-08, Final residual = 8.53692e-17, No Iterations 4
diagonal:  Solving for rho, Initial residual = 0, Final residual = 0, No Iterations 0
time step continuity errors : sum local = 1.47416e-16, global = -1.53329e-17, cumulative = -1.07209e-14
ExecutionTime = 4.26 s  ClockTime = 4 s

Courant Number mean: 0.204324 max: 0.293412
Time = 0.00998

PIMPLE: iteration 1
diagonal:  Solving for rho, Initial residual = 0, Final residual = 0, No Iterations 0
smoothSolver:  Solving for Ux, Initial residual = 0.000341805, Final residual = 4.86901e-17, No Iterations 1
smoothSolver:  Solving for e, Initial residual = 0.000651063, Final residual = 7.77211e-16, No Iterations 7
smoothSolver:  Solving for p, Initial residual = 0.000349859, Final residual = 8.92229e-17, No Iterations 6
diagonal:  Solving for rho, Initial residual = 0, Final residual = 0, No Iterations 0
time step continuity errors : sum local = 1.41122e-16, global = -5.07158e-17, cumulative = -1.07716e-14
smoothSolver:  Solving for p, Initial residual = 3.38304e-07, Final residual = 4.95327e-16, No Iterations 4
diagonal:  Solving for rho, Initial residual = 0, Final residual = 0, No Iterations 0
time step continuity errors : sum local = 5.0796e-16, global = 2.93069e-16, cumulative = -1.04785e-14
PIMPLE: iteration 2
smoothSolver:  Solving for Ux, Initial residual = 2.04944e-07, Final residual = 4.42955e-17, No Iterations 1
smoothSolver:  Solving for e, Initial residual = 4.99019e-06, Final residual = 4.03943e-16, No Iterations 6
smoothSolver:  Solving for p, Initial residual = 1.51855e-06, Final residual = 7.19566e-17, No Iterations 5
diagonal:  Solving for rho, Initial residual = 0, Final residual = 0, No Iterations 0
time step continuity errors : sum local = 1.43327e-16, global = -1.4032e-18, cumulative = -1.04799e-14
smoothSolver:  Solving for p, Initial residual = 3.78131e-08, Final residual = 8.61639e-17, No Iterations 4
diagonal:  Solving for rho, Initial residual = 0, Final residual = 0, No Iterations 0
time step continuity errors : sum local = 1.42425e-16, global = -1.55355e-17, cumulative = -1.04954e-14
ExecutionTime = 4.27 s  ClockTime = 4 s

Courant Number mean: 0.204382 max: 0.293412
Time = 0.00999

PIMPLE: iteration 1
diagonal:  Solving for rho, Initial residual = 0, Final residual = 0, No Iterations 0
smoothSolver:  Solving for Ux, Initial residual = 0.000342036, Final residual = 4.62554e-17, No Iterations 1
smoothSolver:  Solving for e, Initial residual = 0.000651212, Final residual = 7.7711e-16, No Iterations 7
smoothSolver:  Solving for p, Initial residual = 0.000350072, Final residual = 8.61989e-17, No Iterations 6
diagonal:  Solving for rho, Initial residual = 0, Final residual = 0, No Iterations 0
time step continuity errors : sum local = 1.46154e-16, global = -3.92952e-17, cumulative = -1.05347e-14
smoothSolver:  Solving for p, Initial residual = 3.37983e-07, Final residual = 4.98027e-16, No Iterations 4
diagonal:  Solving for rho, Initial residual = 0, Final residual = 0, No Iterations 0
time step continuity errors : sum local = 5.02518e-16, global = 2.89602e-16, cumulative = -1.02451e-14
PIMPLE: iteration 2
smoothSolver:  Solving for Ux, Initial residual = 2.0487e-07, Final residual = 4.61833e-17, No Iterations 1
smoothSolver:  Solving for e, Initial residual = 4.99119e-06, Final residual = 4.05192e-16, No Iterations 6
smoothSolver:  Solving for p, Initial residual = 1.51932e-06, Final residual = 7.33808e-17, No Iterations 5
diagonal:  Solving for rho, Initial residual = 0, Final residual = 0, No Iterations 0
time step continuity errors : sum local = 1.36731e-16, global = -5.81409e-18, cumulative = -1.0251e-14
smoothSolver:  Solving for p, Initial residual = 3.77415e-08, Final residual = 8.80498e-17, No Iterations 4
diagonal:  Solving for rho, Initial residual = 0, Final residual = 0, No Iterations 0
time step continuity errors : sum local = 1.49161e-16, global = -2.68651e-17, cumulative = -1.02778e-14
ExecutionTime = 4.27 s  ClockTime = 4 s

Courant Number mean: 0.20444 max: 0.293412
Time = 0.01

PIMPLE: iteration 1
diagonal:  Solving for rho, Initial residual = 0, Final residual = 0, No Iterations 0
smoothSolver:  Solving for Ux, Initial residual = 0.000342268, Final residual = 4.70248e-17, No Iterations 1
smoothSolver:  Solving for e, Initial residual = 0.000651371, Final residual = 7.78053e-16, No Iterations 7
smoothSolver:  Solving for p, Initial residual = 0.000350284, Final residual = 8.57486e-17, No Iterations 6
diagonal:  Solving for rho, Initial residual = 0, Final residual = 0, No Iterations 0
time step continuity errors : sum local = 1.4417e-16, global = -3.74961e-17, cumulative = -1.03153e-14
smoothSolver:  Solving for p, Initial residual = 3.37782e-07, Final residual = 5.03827e-16, No Iterations 4
diagonal:  Solving for rho, Initial residual = 0, Final residual = 0, No Iterations 0
time step continuity errors : sum local = 5.01485e-16, global = 2.92349e-16, cumulative = -1.0023e-14
PIMPLE: iteration 2
smoothSolver:  Solving for Ux, Initial residual = 2.04796e-07, Final residual = 4.3617e-17, No Iterations 1
smoothSolver:  Solving for e, Initial residual = 4.98961e-06, Final residual = 4.04497e-16, No Iterations 6
smoothSolver:  Solving for p, Initial residual = 1.51934e-06, Final residual = 7.57843e-17, No Iterations 5
diagonal:  Solving for rho, Initial residual = 0, Final residual = 0, No Iterations 0
time step continuity errors : sum local = 1.37553e-16, global = -1.28329e-17, cumulative = -1.00358e-14
smoothSolver:  Solving for p, Initial residual = 3.77794e-08, Final residual = 8.59427e-17, No Iterations 4
diagonal:  Solving for rho, Initial residual = 0, Final residual = 0, No Iterations 0
time step continuity errors : sum local = 1.46876e-16, global = -1.91491e-17, cumulative = -1.00549e-14
ExecutionTime = 4.28 s  ClockTime = 4 s

    functionObjects::mag mag(U) writing field: mag(U)
End

