/*---------------------------------------------------------------------------*\
| =========                 |                                                 |
| \\      /  F ield         | OpenFOAM: The Open Source CFD Toolbox           |
|  \\    /   O peration     | Version:  2012                                  |
|   \\  /    A nd           | Website:  www.openfoam.com                      |
|    \\/     M anipulation  |                                                 |
\*---------------------------------------------------------------------------*/
Build  : _269d0ffd5c-20210619 OPENFOAM=2012 patch=210618
Arch   : "LSB;label=32;scalar=64"
Exec   : mhdFoam
Date   : Apr 19 2022
Time   : 11:57:27
Host   : gabrielmarconcini-Lenovo-G50-80
PID    : 139569
I/O    : uncollated
Case   : /home/gabrielmarconcini/Documentos/TCC/PTCC/Hartmann/mhdFoam/sim2
nProcs : 1
trapFpe: Floating point exception trapping enabled (FOAM_SIGFPE).
fileModificationChecking : Monitoring run-time modified files using timeStampMaster (fileModificationSkew 5, maxFileModificationPolls 20)
allowSystemOperations : Allowing user-supplied system call operations

// * * * * * * * * * * * * * * * * * * * * * * * * * * * * * * * * * * * * * //
Create time

Create mesh for time = 0


PISO: Operating solver in PISO mode


BPISO: Operating solver in PISO mode

Reading transportProperties

Reading field p

Reading field U

Reading/calculating face flux field phi

Reading field pB

Reading field B

Calculating face flux phiB


Starting time loop
Time = 0.005

Courant Number mean: 0.000125 max: 0.0125
smoothSolver:  Solving for Ux, Initial residual = 1, Final residual = 4.40997e-06, No Iterations 14
smoothSolver:  Solving for Uy, Initial residual = 0, Final residual = 0, No Iterations 0
DICPCG:  Solving for p, Initial residual = 1, Final residual = 0.0383731, No Iterations 81
time step continuity errors : sum local = 9.59327e-06, global = 1.61864e-07, cumulative = 1.61864e-07
DICPCG:  Solving for p, Initial residual = 0.00409212, Final residual = 0.000166836, No Iterations 80
time step continuity errors : sum local = 8.60391e-06, global = -1.54761e-08, cumulative = 1.46388e-07
DICPCG:  Solving for p, Initial residual = 0.00412447, Final residual = 8.63697e-07, No Iterations 93
time step continuity errors : sum local = 9.51226e-09, global = -1.26738e-10, cumulative = 1.46261e-07
smoothSolver:  Solving for Bx, Initial residual = 1, Final residual = 6.14638e-06, No Iterations 13
smoothSolver:  Solving for By, Initial residual = 1, Final residual = 6.71787e-06, No Iterations 14
DICPCG:  Solving for pB, Initial residual = 1, Final residual = 5.91663e-06, No Iterations 92
magnetic flux divergence error = 2.00923e-12
smoothSolver:  Solving for Bx, Initial residual = 2.34191e-05, Final residual = 5.57552e-06, No Iterations 1
smoothSolver:  Solving for By, Initial residual = 0.00151619, Final residual = 7.8453e-06, No Iterations 5
DICPCG:  Solving for pB, Initial residual = 0.00369933, Final residual = 9.54083e-06, No Iterations 74
magnetic flux divergence error = 6.47631e-12
smoothSolver:  Solving for Bx, Initial residual = 5.56559e-06, Final residual = 5.56559e-06, No Iterations 0
smoothSolver:  Solving for By, Initial residual = 7.81362e-06, Final residual = 7.81362e-06, No Iterations 0
DICPCG:  Solving for pB, Initial residual = 9.54728e-06, Final residual = 9.54728e-06, No Iterations 0
magnetic flux divergence error = 6.47631e-12
Time = 0.01

Courant Number mean: 0.0251034 max: 0.0390188
smoothSolver:  Solving for Ux, Initial residual = 0.671918, Final residual = 5.09255e-06, No Iterations 15
smoothSolver:  Solving for Uy, Initial residual = 0.522153, Final residual = 5.47317e-06, No Iterations 14
DICPCG:  Solving for p, Initial residual = 0.025292, Final residual = 0.00117709, No Iterations 80
time step continuity errors : sum local = 1.26822e-05, global = 1.83498e-08, cumulative = 1.64611e-07
DICPCG:  Solving for p, Initial residual = 0.00551725, Final residual = 0.000260462, No Iterations 80
time step continuity errors : sum local = 1.02632e-05, global = 7.87699e-08, cumulative = 2.43381e-07
DICPCG:  Solving for p, Initial residual = 0.535582, Final residual = 9.66335e-07, No Iterations 104
time step continuity errors : sum local = 8.80446e-11, global = 3.9488e-13, cumulative = 2.43381e-07
smoothSolver:  Solving for Bx, Initial residual = 0.329102, Final residual = 5.13169e-06, No Iterations 13
smoothSolver:  Solving for By, Initial residual = 0.437874, Final residual = 7.83849e-06, No Iterations 13
DICPCG:  Solving for pB, Initial residual = 0.423404, Final residual = 8.08945e-06, No Iterations 88
magnetic flux divergence error = 8.81077e-12
smoothSolver:  Solving for Bx, Initial residual = 1.47043e-05, Final residual = 4.35831e-06, No Iterations 1
smoothSolver:  Solving for By, Initial residual = 0.00132488, Final residual = 9.91615e-06, No Iterations 5
DICPCG:  Solving for pB, Initial residual = 0.00359858, Final residual = 9.82246e-06, No Iterations 12
magnetic flux divergence error = 1.47367e-11
smoothSolver:  Solving for Bx, Initial residual = 4.34699e-06, Final residual = 4.34699e-06, No Iterations 0
smoothSolver:  Solving for By, Initial residual = 9.89618e-06, Final residual = 9.89618e-06, No Iterations 0
DICPCG:  Solving for pB, Initial residual = 9.82738e-06, Final residual = 9.82738e-06, No Iterations 0
magnetic flux divergence error = 1.47367e-11
Time = 0.015

Courant Number mean: 0.0252454 max: 0.0519256
smoothSolver:  Solving for Ux, Initial residual = 0.0581711, Final residual = 4.46856e-06, No Iterations 11
smoothSolver:  Solving for Uy, Initial residual = 0.245316, Final residual = 7.80518e-06, No Iterations 13
DICPCG:  Solving for p, Initial residual = 0.0984356, Final residual = 0.00403244, No Iterations 8
time step continuity errors : sum local = 1.48382e-06, global = 2.723e-07, cumulative = 5.15681e-07
DICPCG:  Solving for p, Initial residual = 0.0621338, Final residual = 0.00267517, No Iterations 8
time step continuity errors : sum local = 9.66031e-07, global = 3.04651e-07, cumulative = 8.20332e-07
DICPCG:  Solving for p, Initial residual = 0.0135143, Final residual = 6.93492e-07, No Iterations 95
time step continuity errors : sum local = 2.38069e-10, global = 1.35313e-12, cumulative = 8.20333e-07
smoothSolver:  Solving for Bx, Initial residual = 0.182749, Final residual = 9.12003e-06, No Iterations 12
smoothSolver:  Solving for By, Initial residual = 0.203099, Final residual = 9.63118e-06, No Iterations 12
DICPCG:  Solving for pB, Initial residual = 0.218499, Final residual = 8.95213e-06, No Iterations 88
magnetic flux divergence error = 1.684e-11
smoothSolver:  Solving for Bx, Initial residual = 1.3801e-05, Final residual = 5.21872e-06, No Iterations 1
smoothSolver:  Solving for By, Initial residual = 0.000843981, Final residual = 7.21569e-06, No Iterations 5
DICPCG:  Solving for pB, Initial residual = 0.00227586, Final residual = 9.0619e-06, No Iterations 10
magnetic flux divergence error = 2.04974e-11
smoothSolver:  Solving for Bx, Initial residual = 5.2291e-06, Final residual = 5.2291e-06, No Iterations 0
smoothSolver:  Solving for By, Initial residual = 7.19905e-06, Final residual = 7.19905e-06, No Iterations 0
DICPCG:  Solving for pB, Initial residual = 9.06038e-06, Final residual = 9.06038e-06, No Iterations 0
magnetic flux divergence error = 2.04974e-11
Time = 0.02

Courant Number mean: 0.0252918 max: 0.0546834
smoothSolver:  Solving for Ux, Initial residual = 0.0407709, Final residual = 7.71829e-06, No Iterations 10
smoothSolver:  Solving for Uy, Initial residual = 0.0734817, Final residual = 8.36185e-06, No Iterations 11
DICPCG:  Solving for p, Initial residual = 0.0303691, Final residual = 0.000823617, No Iterations 73
time step continuity errors : sum local = 2.31072e-07, global = -6.08189e-09, cumulative = 8.14252e-07
DICPCG:  Solving for p, Initial residual = 0.0113193, Final residual = 0.000497821, No Iterations 74
time step continuity errors : sum local = 1.74492e-07, global = 7.14684e-09, cumulative = 8.21398e-07
DICPCG:  Solving for p, Initial residual = 0.00367105, Final residual = 6.23825e-07, No Iterations 91
time step continuity errors : sum local = 1.80757e-10, global = -3.16837e-12, cumulative = 8.21395e-07
smoothSolver:  Solving for Bx, Initial residual = 0.129759, Final residual = 7.56313e-06, No Iterations 12
smoothSolver:  Solving for By, Initial residual = 0.131395, Final residual = 6.84925e-06, No Iterations 12
DICPCG:  Solving for pB, Initial residual = 0.143672, Final residual = 8.73821e-06, No Iterations 87
magnetic flux divergence error = 2.29087e-11
smoothSolver:  Solving for Bx, Initial residual = 1.11947e-05, Final residual = 4.40423e-06, No Iterations 1
smoothSolver:  Solving for By, Initial residual = 0.000614356, Final residual = 5.74025e-06, No Iterations 5
DICPCG:  Solving for pB, Initial residual = 0.00166645, Final residual = 7.34655e-06, No Iterations 8
magnetic flux divergence error = 2.19038e-11
smoothSolver:  Solving for Bx, Initial residual = 4.41202e-06, Final residual = 4.41202e-06, No Iterations 0
smoothSolver:  Solving for By, Initial residual = 5.71861e-06, Final residual = 5.71861e-06, No Iterations 0
DICPCG:  Solving for pB, Initial residual = 7.34632e-06, Final residual = 7.34632e-06, No Iterations 0
magnetic flux divergence error = 2.19038e-11
Time = 0.025

Courant Number mean: 0.0253301 max: 0.0567904
smoothSolver:  Solving for Ux, Initial residual = 0.0322169, Final residual = 6.81854e-06, No Iterations 10
smoothSolver:  Solving for Uy, Initial residual = 0.0472688, Final residual = 5.23153e-06, No Iterations 11
DICPCG:  Solving for p, Initial residual = 0.010193, Final residual = 0.000298958, No Iterations 79
time step continuity errors : sum local = 8.59972e-08, global = -1.36885e-10, cumulative = 8.21258e-07
DICPCG:  Solving for p, Initial residual = 0.00480776, Final residual = 0.000231501, No Iterations 80
time step continuity errors : sum local = 4.15285e-08, global = 7.98309e-10, cumulative = 8.22057e-07
DICPCG:  Solving for p, Initial residual = 0.000880542, Final residual = 6.56762e-07, No Iterations 89
time step continuity errors : sum local = 1.72889e-10, global = -1.69629e-12, cumulative = 8.22055e-07
smoothSolver:  Solving for Bx, Initial residual = 0.102352, Final residual = 6.46748e-06, No Iterations 12
smoothSolver:  Solving for By, Initial residual = 0.0958553, Final residual = 5.34295e-06, No Iterations 12
DICPCG:  Solving for pB, Initial residual = 0.104157, Final residual = 9.89679e-06, No Iterations 64
magnetic flux divergence error = 3.27731e-11
smoothSolver:  Solving for Bx, Initial residual = 9.47554e-06, Final residual = 9.47554e-06, No Iterations 0
smoothSolver:  Solving for By, Initial residual = 0.000476815, Final residual = 4.76541e-06, No Iterations 5
DICPCG:  Solving for pB, Initial residual = 0.00138278, Final residual = 7.84962e-06, No Iterations 10
magnetic flux divergence error = 2.85816e-11
smoothSolver:  Solving for Bx, Initial residual = 9.47892e-06, Final residual = 9.47892e-06, No Iterations 0
smoothSolver:  Solving for By, Initial residual = 4.76458e-06, Final residual = 4.76458e-06, No Iterations 0
DICPCG:  Solving for pB, Initial residual = 7.8507e-06, Final residual = 7.8507e-06, No Iterations 0
magnetic flux divergence error = 2.85816e-11
Time = 0.03

Courant Number mean: 0.0253625 max: 0.0582209
smoothSolver:  Solving for Ux, Initial residual = 0.0254857, Final residual = 5.65424e-06, No Iterations 10
smoothSolver:  Solving for Uy, Initial residual = 0.0363551, Final residual = 9.46192e-06, No Iterations 10
DICPCG:  Solving for p, Initial residual = 0.0063491, Final residual = 0.000207501, No Iterations 79
time step continuity errors : sum local = 5.46061e-08, global = -2.17346e-10, cumulative = 8.21838e-07
DICPCG:  Solving for p, Initial residual = 0.00254535, Final residual = 0.000115696, No Iterations 82
time step continuity errors : sum local = 2.1509e-08, global = -7.95264e-11, cumulative = 8.21758e-07
DICPCG:  Solving for p, Initial residual = 0.00045424, Final residual = 8.56084e-07, No Iterations 86
time step continuity errors : sum local = 2.10603e-10, global = 1.07646e-12, cumulative = 8.21759e-07
smoothSolver:  Solving for Bx, Initial residual = 0.0849725, Final residual = 5.63355e-06, No Iterations 12
smoothSolver:  Solving for By, Initial residual = 0.0747086, Final residual = 9.64132e-06, No Iterations 11
DICPCG:  Solving for pB, Initial residual = 0.081412, Final residual = 9.69601e-06, No Iterations 34
magnetic flux divergence error = 3.81697e-11
smoothSolver:  Solving for Bx, Initial residual = 8.22587e-06, Final residual = 8.22587e-06, No Iterations 0
smoothSolver:  Solving for By, Initial residual = 0.000383197, Final residual = 9.74438e-06, No Iterations 4
DICPCG:  Solving for pB, Initial residual = 0.0011225, Final residual = 7.21196e-06, No Iterations 10
magnetic flux divergence error = 3.05216e-11
smoothSolver:  Solving for Bx, Initial residual = 8.22882e-06, Final residual = 8.22882e-06, No Iterations 0
smoothSolver:  Solving for By, Initial residual = 9.72864e-06, Final residual = 9.72864e-06, No Iterations 0
DICPCG:  Solving for pB, Initial residual = 7.213e-06, Final residual = 7.213e-06, No Iterations 0
magnetic flux divergence error = 3.05216e-11
Time = 0.035

Courant Number mean: 0.0253901 max: 0.0591568
smoothSolver:  Solving for Ux, Initial residual = 0.0209798, Final residual = 4.77728e-06, No Iterations 10
smoothSolver:  Solving for Uy, Initial residual = 0.0291501, Final residual = 7.78064e-06, No Iterations 10
DICPCG:  Solving for p, Initial residual = 0.00429245, Final residual = 0.0001479, No Iterations 79
time step continuity errors : sum local = 3.64019e-08, global = -3.00424e-11, cumulative = 8.21729e-07
DICPCG:  Solving for p, Initial residual = 0.0019527, Final residual = 7.91547e-05, No Iterations 81
time step continuity errors : sum local = 1.48744e-08, global = 1.65925e-10, cumulative = 8.21895e-07
DICPCG:  Solving for p, Initial residual = 0.000285904, Final residual = 9.36511e-07, No Iterations 85
time step continuity errors : sum local = 2.18531e-10, global = -1.7376e-12, cumulative = 8.21893e-07
smoothSolver:  Solving for Bx, Initial residual = 0.072798, Final residual = 4.96886e-06, No Iterations 12
smoothSolver:  Solving for By, Initial residual = 0.0607109, Final residual = 8.17643e-06, No Iterations 11
DICPCG:  Solving for pB, Initial residual = 0.0662631, Final residual = 9.97661e-06, No Iterations 32
magnetic flux divergence error = 4.49653e-11
smoothSolver:  Solving for Bx, Initial residual = 7.258e-06, Final residual = 7.258e-06, No Iterations 0
smoothSolver:  Solving for By, Initial residual = 0.00031856, Final residual = 8.39756e-06, No Iterations 4
DICPCG:  Solving for pB, Initial residual = 0.000963719, Final residual = 6.7244e-06, No Iterations 10
magnetic flux divergence error = 3.2158e-11
smoothSolver:  Solving for Bx, Initial residual = 7.26082e-06, Final residual = 7.26082e-06, No Iterations 0
smoothSolver:  Solving for By, Initial residual = 8.37911e-06, Final residual = 8.37911e-06, No Iterations 0
DICPCG:  Solving for pB, Initial residual = 6.72505e-06, Final residual = 6.72505e-06, No Iterations 0
magnetic flux divergence error = 3.2158e-11
Time = 0.04

Courant Number mean: 0.0254141 max: 0.0597876
smoothSolver:  Solving for Ux, Initial residual = 0.0175253, Final residual = 9.3917e-06, No Iterations 9
smoothSolver:  Solving for Uy, Initial residual = 0.0240206, Final residual = 6.54107e-06, No Iterations 10
DICPCG:  Solving for p, Initial residual = 0.00308647, Final residual = 0.000119613, No Iterations 79
time step continuity errors : sum local = 2.79392e-08, global = 3.52656e-13, cumulative = 8.21894e-07
DICPCG:  Solving for p, Initial residual = 0.00158436, Final residual = 7.46687e-05, No Iterations 80
time step continuity errors : sum local = 1.40541e-08, global = 1.86924e-10, cumulative = 8.22081e-07
DICPCG:  Solving for p, Initial residual = 0.000229001, Final residual = 8.7884e-07, No Iterations 85
time step continuity errors : sum local = 1.96615e-10, global = -1.08369e-12, cumulative = 8.22079e-07
smoothSolver:  Solving for Bx, Initial residual = 0.0636847, Final residual = 9.83072e-06, No Iterations 11
smoothSolver:  Solving for By, Initial residual = 0.0506616, Final residual = 7.089e-06, No Iterations 11
DICPCG:  Solving for pB, Initial residual = 0.0555395, Final residual = 9.76049e-06, No Iterations 32
magnetic flux divergence error = 4.90887e-11
smoothSolver:  Solving for Bx, Initial residual = 1.12026e-05, Final residual = 4.81757e-06, No Iterations 1
smoothSolver:  Solving for By, Initial residual = 0.000270008, Final residual = 7.33832e-06, No Iterations 4
DICPCG:  Solving for pB, Initial residual = 0.000770857, Final residual = 9.39558e-06, No Iterations 7
magnetic flux divergence error = 4.95805e-11
smoothSolver:  Solving for Bx, Initial residual = 4.82093e-06, Final residual = 4.82093e-06, No Iterations 0
smoothSolver:  Solving for By, Initial residual = 7.31073e-06, Final residual = 7.31073e-06, No Iterations 0
DICPCG:  Solving for pB, Initial residual = 9.39538e-06, Final residual = 9.39538e-06, No Iterations 0
magnetic flux divergence error = 4.95805e-11
Time = 0.045

Courant Number mean: 0.025435 max: 0.0602255
smoothSolver:  Solving for Ux, Initial residual = 0.0149954, Final residual = 8.16057e-06, No Iterations 9
smoothSolver:  Solving for Uy, Initial residual = 0.0202407, Final residual = 5.62081e-06, No Iterations 10
DICPCG:  Solving for p, Initial residual = 0.00233256, Final residual = 0.000108828, No Iterations 79
time step continuity errors : sum local = 2.4374e-08, global = -7.65903e-11, cumulative = 8.22003e-07
DICPCG:  Solving for p, Initial residual = 0.00134598, Final residual = 5.16094e-05, No Iterations 82
time step continuity errors : sum local = 9.68113e-09, global = -8.58818e-13, cumulative = 8.22002e-07
DICPCG:  Solving for p, Initial residual = 0.000175684, Final residual = 9.29312e-07, No Iterations 84
time step continuity errors : sum local = 2.00825e-10, global = -1.13164e-12, cumulative = 8.22001e-07
smoothSolver:  Solving for Bx, Initial residual = 0.0565316, Final residual = 8.81057e-06, No Iterations 11
smoothSolver:  Solving for By, Initial residual = 0.0431158, Final residual = 6.24603e-06, No Iterations 11
DICPCG:  Solving for pB, Initial residual = 0.0476422, Final residual = 9.70992e-06, No Iterations 34
magnetic flux divergence error = 5.34539e-11
smoothSolver:  Solving for Bx, Initial residual = 1.00838e-05, Final residual = 4.35379e-06, No Iterations 1
smoothSolver:  Solving for By, Initial residual = 0.000232182, Final residual = 6.47646e-06, No Iterations 4
DICPCG:  Solving for pB, Initial residual = 0.00067863, Final residual = 9.58777e-06, No Iterations 7
magnetic flux divergence error = 5.49699e-11
smoothSolver:  Solving for Bx, Initial residual = 4.35595e-06, Final residual = 4.35595e-06, No Iterations 0
smoothSolver:  Solving for By, Initial residual = 6.44766e-06, Final residual = 6.44766e-06, No Iterations 0
DICPCG:  Solving for pB, Initial residual = 9.58737e-06, Final residual = 9.58737e-06, No Iterations 0
magnetic flux divergence error = 5.49699e-11
Time = 0.05

Courant Number mean: 0.0254535 max: 0.0605374
smoothSolver:  Solving for Ux, Initial residual = 0.0129417, Final residual = 7.13223e-06, No Iterations 9
smoothSolver:  Solving for Uy, Initial residual = 0.0171879, Final residual = 4.81619e-06, No Iterations 10
DICPCG:  Solving for p, Initial residual = 0.00185435, Final residual = 7.52947e-05, No Iterations 79
time step continuity errors : sum local = 1.62903e-08, global = 6.59151e-11, cumulative = 8.22067e-07
DICPCG:  Solving for p, Initial residual = 0.00116421, Final residual = 5.56436e-05, No Iterations 79
time step continuity errors : sum local = 1.03813e-08, global = -3.30159e-11, cumulative = 8.22034e-07
DICPCG:  Solving for p, Initial residual = 0.000175239, Final residual = 9.0847e-07, No Iterations 84
time step continuity errors : sum local = 1.90726e-10, global = -2.05931e-13, cumulative = 8.22034e-07
smoothSolver:  Solving for Bx, Initial residual = 0.0507138, Final residual = 7.94256e-06, No Iterations 11
smoothSolver:  Solving for By, Initial residual = 0.0372727, Final residual = 5.57766e-06, No Iterations 11
DICPCG:  Solving for pB, Initial residual = 0.0418317, Final residual = 9.22728e-06, No Iterations 35
magnetic flux divergence error = 5.48507e-11
smoothSolver:  Solving for Bx, Initial residual = 9.1325e-06, Final residual = 9.1325e-06, No Iterations 0
smoothSolver:  Solving for By, Initial residual = 0.000202277, Final residual = 5.76709e-06, No Iterations 4
DICPCG:  Solving for pB, Initial residual = 0.000673694, Final residual = 9.38931e-06, No Iterations 9
magnetic flux divergence error = 5.77895e-11
smoothSolver:  Solving for Bx, Initial residual = 9.13464e-06, Final residual = 9.13464e-06, No Iterations 0
smoothSolver:  Solving for By, Initial residual = 5.74415e-06, Final residual = 5.74415e-06, No Iterations 0
DICPCG:  Solving for pB, Initial residual = 9.39e-06, Final residual = 9.39e-06, No Iterations 0
magnetic flux divergence error = 5.77895e-11
Time = 0.055

Courant Number mean: 0.0254699 max: 0.0607646
smoothSolver:  Solving for Ux, Initial residual = 0.0112216, Final residual = 6.26192e-06, No Iterations 9
smoothSolver:  Solving for Uy, Initial residual = 0.0148179, Final residual = 9.46065e-06, No Iterations 9
DICPCG:  Solving for p, Initial residual = 0.00152811, Final residual = 6.59022e-05, No Iterations 79
time step continuity errors : sum local = 1.38517e-08, global = 5.05549e-11, cumulative = 8.22084e-07
DICPCG:  Solving for p, Initial residual = 0.00102521, Final residual = 3.42186e-05, No Iterations 80
time step continuity errors : sum local = 6.34427e-09, global = 5.09552e-11, cumulative = 8.22135e-07
DICPCG:  Solving for p, Initial residual = 0.000122145, Final residual = 7.71661e-07, No Iterations 84
time step continuity errors : sum local = 1.58089e-10, global = 8.9016e-13, cumulative = 8.22136e-07
smoothSolver:  Solving for Bx, Initial residual = 0.0458539, Final residual = 7.19507e-06, No Iterations 11
smoothSolver:  Solving for By, Initial residual = 0.0326505, Final residual = 5.03587e-06, No Iterations 11
DICPCG:  Solving for pB, Initial residual = 0.0376645, Final residual = 9.09833e-06, No Iterations 35
magnetic flux divergence error = 5.77559e-11
smoothSolver:  Solving for Bx, Initial residual = 8.31664e-06, Final residual = 8.31664e-06, No Iterations 0
smoothSolver:  Solving for By, Initial residual = 0.000178042, Final residual = 5.17416e-06, No Iterations 4
DICPCG:  Solving for pB, Initial residual = 0.000613101, Final residual = 8.84512e-06, No Iterations 9
magnetic flux divergence error = 5.78581e-11
smoothSolver:  Solving for Bx, Initial residual = 8.3186e-06, Final residual = 8.3186e-06, No Iterations 0
smoothSolver:  Solving for By, Initial residual = 5.15105e-06, Final residual = 5.15105e-06, No Iterations 0
DICPCG:  Solving for pB, Initial residual = 8.84558e-06, Final residual = 8.84558e-06, No Iterations 0
magnetic flux divergence error = 5.78581e-11
Time = 0.06

Courant Number mean: 0.0254844 max: 0.0609336
smoothSolver:  Solving for Ux, Initial residual = 0.00984473, Final residual = 5.53185e-06, No Iterations 9
smoothSolver:  Solving for Uy, Initial residual = 0.0128728, Final residual = 8.28671e-06, No Iterations 9
DICPCG:  Solving for p, Initial residual = 0.00130281, Final residual = 5.73077e-05, No Iterations 79
time step continuity errors : sum local = 1.17537e-08, global = 4.42992e-11, cumulative = 8.2218e-07
DICPCG:  Solving for p, Initial residual = 0.000940187, Final residual = 3.72529e-05, No Iterations 80
time step continuity errors : sum local = 6.86246e-09, global = 5.81377e-11, cumulative = 8.22238e-07
DICPCG:  Solving for p, Initial residual = 0.000111718, Final residual = 6.9541e-07, No Iterations 84
time step continuity errors : sum local = 1.39517e-10, global = 1.13689e-12, cumulative = 8.2224e-07
smoothSolver:  Solving for Bx, Initial residual = 0.0417072, Final residual = 6.54507e-06, No Iterations 11
smoothSolver:  Solving for By, Initial residual = 0.0289221, Final residual = 4.58915e-06, No Iterations 11
DICPCG:  Solving for pB, Initial residual = 0.0345595, Final residual = 9.02246e-06, No Iterations 35
magnetic flux divergence error = 6.06847e-11
smoothSolver:  Solving for Bx, Initial residual = 7.60468e-06, Final residual = 7.60468e-06, No Iterations 0
smoothSolver:  Solving for By, Initial residual = 0.000157985, Final residual = 4.66936e-06, No Iterations 4
DICPCG:  Solving for pB, Initial residual = 0.000560806, Final residual = 8.35358e-06, No Iterations 9
magnetic flux divergence error = 5.77281e-11
smoothSolver:  Solving for Bx, Initial residual = 7.60641e-06, Final residual = 7.60641e-06, No Iterations 0
smoothSolver:  Solving for By, Initial residual = 4.64664e-06, Final residual = 4.64664e-06, No Iterations 0
DICPCG:  Solving for pB, Initial residual = 8.35408e-06, Final residual = 8.35408e-06, No Iterations 0
magnetic flux divergence error = 5.77281e-11
Time = 0.065

Courant Number mean: 0.0254974 max: 0.0610616
smoothSolver:  Solving for Ux, Initial residual = 0.00867819, Final residual = 4.90688e-06, No Iterations 9
smoothSolver:  Solving for Uy, Initial residual = 0.0112678, Final residual = 7.31014e-06, No Iterations 9
DICPCG:  Solving for p, Initial residual = 0.00115617, Final residual = 5.3827e-05, No Iterations 79
time step continuity errors : sum local = 1.08106e-08, global = 1.20891e-11, cumulative = 8.22252e-07
DICPCG:  Solving for p, Initial residual = 0.000868886, Final residual = 3.83819e-05, No Iterations 81
time step continuity errors : sum local = 7.02586e-09, global = 6.43659e-11, cumulative = 8.22316e-07
DICPCG:  Solving for p, Initial residual = 9.74985e-05, Final residual = 7.45246e-07, No Iterations 83
time step continuity errors : sum local = 1.4684e-10, global = 1.67786e-13, cumulative = 8.22316e-07
smoothSolver:  Solving for Bx, Initial residual = 0.0381128, Final residual = 5.97533e-06, No Iterations 11
smoothSolver:  Solving for By, Initial residual = 0.0258535, Final residual = 9.18479e-06, No Iterations 10
DICPCG:  Solving for pB, Initial residual = 0.0319498, Final residual = 9.82271e-06, No Iterations 34
magnetic flux divergence error = 6.95604e-11
smoothSolver:  Solving for Bx, Initial residual = 6.9787e-06, Final residual = 6.9787e-06, No Iterations 0
smoothSolver:  Solving for By, Initial residual = 0.000139742, Final residual = 9.90021e-06, No Iterations 3
DICPCG:  Solving for pB, Initial residual = 0.000495087, Final residual = 7.79071e-06, No Iterations 9
magnetic flux divergence error = 5.65032e-11
smoothSolver:  Solving for Bx, Initial residual = 6.97957e-06, Final residual = 6.97957e-06, No Iterations 0
smoothSolver:  Solving for By, Initial residual = 9.87644e-06, Final residual = 9.87644e-06, No Iterations 0
DICPCG:  Solving for pB, Initial residual = 7.79111e-06, Final residual = 7.79111e-06, No Iterations 0
magnetic flux divergence error = 5.65032e-11
Time = 0.07

Courant Number mean: 0.025509 max: 0.0611601
smoothSolver:  Solving for Ux, Initial residual = 0.00767152, Final residual = 9.96543e-06, No Iterations 8
smoothSolver:  Solving for Uy, Initial residual = 0.00989132, Final residual = 6.44504e-06, No Iterations 9
DICPCG:  Solving for p, Initial residual = 0.00105271, Final residual = 3.94109e-05, No Iterations 79
time step continuity errors : sum local = 7.77296e-09, global = 4.34568e-11, cumulative = 8.2236e-07
DICPCG:  Solving for p, Initial residual = 0.000806394, Final residual = 3.12871e-05, No Iterations 79
time step continuity errors : sum local = 5.69445e-09, global = -1.26107e-11, cumulative = 8.22347e-07
DICPCG:  Solving for p, Initial residual = 9.81989e-05, Final residual = 8.94054e-07, No Iterations 83
time step continuity errors : sum local = 1.73412e-10, global = 2.47454e-12, cumulative = 8.2235e-07
smoothSolver:  Solving for Bx, Initial residual = 0.0349589, Final residual = 5.47256e-06, No Iterations 11
smoothSolver:  Solving for By, Initial residual = 0.0232923, Final residual = 8.48734e-06, No Iterations 10
DICPCG:  Solving for pB, Initial residual = 0.0295934, Final residual = 9.84412e-06, No Iterations 33
magnetic flux divergence error = 7.30557e-11
smoothSolver:  Solving for Bx, Initial residual = 6.42285e-06, Final residual = 6.42285e-06, No Iterations 0
smoothSolver:  Solving for By, Initial residual = 0.000125588, Final residual = 8.9921e-06, No Iterations 3
DICPCG:  Solving for pB, Initial residual = 0.00045896, Final residual = 7.39135e-06, No Iterations 9
magnetic flux divergence error = 5.60991e-11
smoothSolver:  Solving for Bx, Initial residual = 6.42368e-06, Final residual = 6.42368e-06, No Iterations 0
smoothSolver:  Solving for By, Initial residual = 8.96925e-06, Final residual = 8.96925e-06, No Iterations 0
DICPCG:  Solving for pB, Initial residual = 7.39176e-06, Final residual = 7.39176e-06, No Iterations 0
magnetic flux divergence error = 5.60991e-11
Time = 0.075

Courant Number mean: 0.0255194 max: 0.0612368
smoothSolver:  Solving for Ux, Initial residual = 0.00679757, Final residual = 8.87079e-06, No Iterations 8
smoothSolver:  Solving for Uy, Initial residual = 0.00874729, Final residual = 5.72941e-06, No Iterations 9
DICPCG:  Solving for p, Initial residual = 0.000984616, Final residual = 4.08739e-05, No Iterations 79
time step continuity errors : sum local = 7.93537e-09, global = 2.18556e-11, cumulative = 8.22371e-07
DICPCG:  Solving for p, Initial residual = 0.0007573, Final residual = 3.64066e-05, No Iterations 80
time step continuity errors : sum local = 6.58876e-09, global = 5.13404e-11, cumulative = 8.22423e-07
DICPCG:  Solving for p, Initial residual = 8.69972e-05, Final residual = 7.59861e-07, No Iterations 83
time step continuity errors : sum local = 1.45373e-10, global = 1.10026e-12, cumulative = 8.22424e-07
smoothSolver:  Solving for Bx, Initial residual = 0.0321662, Final residual = 5.02643e-06, No Iterations 11
smoothSolver:  Solving for By, Initial residual = 0.021135, Final residual = 7.89231e-06, No Iterations 10
DICPCG:  Solving for pB, Initial residual = 0.0274135, Final residual = 9.79915e-06, No Iterations 33
magnetic flux divergence error = 7.59324e-11
smoothSolver:  Solving for Bx, Initial residual = 5.92608e-06, Final residual = 5.92608e-06, No Iterations 0
smoothSolver:  Solving for By, Initial residual = 0.000113401, Final residual = 8.19625e-06, No Iterations 3
DICPCG:  Solving for pB, Initial residual = 0.000427339, Final residual = 7.1104e-06, No Iterations 9
magnetic flux divergence error = 5.62289e-11
smoothSolver:  Solving for Bx, Initial residual = 5.92686e-06, Final residual = 5.92686e-06, No Iterations 0
smoothSolver:  Solving for By, Initial residual = 8.17441e-06, Final residual = 8.17441e-06, No Iterations 0
DICPCG:  Solving for pB, Initial residual = 7.11071e-06, Final residual = 7.11071e-06, No Iterations 0
magnetic flux divergence error = 5.62289e-11
Time = 0.08

Courant Number mean: 0.0255287 max: 0.0612974
smoothSolver:  Solving for Ux, Initial residual = 0.00603422, Final residual = 7.9065e-06, No Iterations 8
smoothSolver:  Solving for Uy, Initial residual = 0.00774717, Final residual = 5.09225e-06, No Iterations 9
DICPCG:  Solving for p, Initial residual = 0.000925128, Final residual = 3.68284e-05, No Iterations 79
time step continuity errors : sum local = 7.05196e-09, global = 1.43827e-11, cumulative = 8.22438e-07
DICPCG:  Solving for p, Initial residual = 0.000715585, Final residual = 3.09724e-05, No Iterations 80
time step continuity errors : sum local = 5.57597e-09, global = 3.95709e-11, cumulative = 8.22478e-07
DICPCG:  Solving for p, Initial residual = 7.69969e-05, Final residual = 8.86318e-07, No Iterations 82
time step continuity errors : sum local = 1.67533e-10, global = 2.6772e-13, cumulative = 8.22478e-07
smoothSolver:  Solving for Bx, Initial residual = 0.0296749, Final residual = 4.62854e-06, No Iterations 11
smoothSolver:  Solving for By, Initial residual = 0.0192937, Final residual = 7.38172e-06, No Iterations 10
DICPCG:  Solving for pB, Initial residual = 0.0254065, Final residual = 9.83479e-06, No Iterations 28
magnetic flux divergence error = 7.93416e-11
smoothSolver:  Solving for Bx, Initial residual = 5.48166e-06, Final residual = 5.48166e-06, No Iterations 0
smoothSolver:  Solving for By, Initial residual = 0.000102798, Final residual = 7.49324e-06, No Iterations 3
DICPCG:  Solving for pB, Initial residual = 0.000398295, Final residual = 6.91767e-06, No Iterations 9
magnetic flux divergence error = 5.69107e-11
smoothSolver:  Solving for Bx, Initial residual = 5.48255e-06, Final residual = 5.48255e-06, No Iterations 0
smoothSolver:  Solving for By, Initial residual = 7.47269e-06, Final residual = 7.47269e-06, No Iterations 0
DICPCG:  Solving for pB, Initial residual = 6.918e-06, Final residual = 6.918e-06, No Iterations 0
magnetic flux divergence error = 5.69107e-11
Time = 0.085

Courant Number mean: 0.025537 max: 0.0613457
smoothSolver:  Solving for Ux, Initial residual = 0.00536442, Final residual = 7.0538e-06, No Iterations 8
smoothSolver:  Solving for Uy, Initial residual = 0.00688809, Final residual = 4.54238e-06, No Iterations 9
DICPCG:  Solving for p, Initial residual = 0.000882182, Final residual = 3.37863e-05, No Iterations 79
time step continuity errors : sum local = 6.39153e-09, global = 1.26288e-12, cumulative = 8.22479e-07
DICPCG:  Solving for p, Initial residual = 0.000680944, Final residual = 3.04162e-05, No Iterations 80
time step continuity errors : sum local = 5.44964e-09, global = 4.73157e-11, cumulative = 8.22527e-07
DICPCG:  Solving for p, Initial residual = 7.2191e-05, Final residual = 6.48412e-07, No Iterations 83
time step continuity errors : sum local = 1.21267e-10, global = 5.42268e-13, cumulative = 8.22527e-07
smoothSolver:  Solving for Bx, Initial residual = 0.0274502, Final residual = 9.4932e-06, No Iterations 10
smoothSolver:  Solving for By, Initial residual = 0.0177112, Final residual = 6.93836e-06, No Iterations 10
DICPCG:  Solving for pB, Initial residual = 0.0235305, Final residual = 9.68071e-06, No Iterations 34
magnetic flux divergence error = 8.11483e-11
smoothSolver:  Solving for Bx, Initial residual = 9.90826e-06, Final residual = 9.90826e-06, No Iterations 0
smoothSolver:  Solving for By, Initial residual = 9.34868e-05, Final residual = 6.86802e-06, No Iterations 3
DICPCG:  Solving for pB, Initial residual = 0.00037303, Final residual = 9.99901e-06, No Iterations 8
magnetic flux divergence error = 8.53722e-11
smoothSolver:  Solving for Bx, Initial residual = 9.90887e-06, Final residual = 9.90887e-06, No Iterations 0
smoothSolver:  Solving for By, Initial residual = 6.84786e-06, Final residual = 6.84786e-06, No Iterations 0
DICPCG:  Solving for pB, Initial residual = 9.9994e-06, Final residual = 9.9994e-06, No Iterations 0
magnetic flux divergence error = 8.53722e-11
Time = 0.09

Courant Number mean: 0.0255445 max: 0.0613846
smoothSolver:  Solving for Ux, Initial residual = 0.00478596, Final residual = 6.29495e-06, No Iterations 8
smoothSolver:  Solving for Uy, Initial residual = 0.00613674, Final residual = 9.1248e-06, No Iterations 8
DICPCG:  Solving for p, Initial residual = 0.000843637, Final residual = 2.76925e-05, No Iterations 79
time step continuity errors : sum local = 5.18302e-09, global = 1.45024e-11, cumulative = 8.22542e-07
DICPCG:  Solving for p, Initial residual = 0.000648873, Final residual = 2.96061e-05, No Iterations 79
time step continuity errors : sum local = 5.28139e-09, global = 1.97543e-11, cumulative = 8.22561e-07
DICPCG:  Solving for p, Initial residual = 7.41689e-05, Final residual = 8.92782e-07, No Iterations 82
time step continuity errors : sum local = 1.65406e-10, global = -8.37183e-13, cumulative = 8.22561e-07
smoothSolver:  Solving for Bx, Initial residual = 0.0254522, Final residual = 8.78126e-06, No Iterations 10
smoothSolver:  Solving for By, Initial residual = 0.0163592, Final residual = 6.55075e-06, No Iterations 10
DICPCG:  Solving for pB, Initial residual = 0.0217686, Final residual = 9.67835e-06, No Iterations 27
magnetic flux divergence error = 8.41489e-11
smoothSolver:  Solving for Bx, Initial residual = 9.18779e-06, Final residual = 9.18779e-06, No Iterations 0
smoothSolver:  Solving for By, Initial residual = 8.52883e-05, Final residual = 6.30988e-06, No Iterations 3
DICPCG:  Solving for pB, Initial residual = 0.000348929, Final residual = 9.89582e-06, No Iterations 7
magnetic flux divergence error = 8.75868e-11
smoothSolver:  Solving for Bx, Initial residual = 9.18822e-06, Final residual = 9.18822e-06, No Iterations 0
smoothSolver:  Solving for By, Initial residual = 6.29077e-06, Final residual = 6.29077e-06, No Iterations 0
DICPCG:  Solving for pB, Initial residual = 9.89636e-06, Final residual = 9.89636e-06, No Iterations 0
magnetic flux divergence error = 8.75868e-11
Time = 0.095

Courant Number mean: 0.0255512 max: 0.0614162
smoothSolver:  Solving for Ux, Initial residual = 0.00427133, Final residual = 5.61746e-06, No Iterations 8
smoothSolver:  Solving for Uy, Initial residual = 0.00548376, Final residual = 8.17346e-06, No Iterations 8
DICPCG:  Solving for p, Initial residual = 0.000812996, Final residual = 3.20333e-05, No Iterations 79
time step continuity errors : sum local = 5.93908e-09, global = -1.06717e-11, cumulative = 8.2255e-07
DICPCG:  Solving for p, Initial residual = 0.000622208, Final residual = 2.5299e-05, No Iterations 80
time step continuity errors : sum local = 4.49533e-09, global = 2.94288e-11, cumulative = 8.22579e-07
DICPCG:  Solving for p, Initial residual = 5.98795e-05, Final residual = 9.09839e-07, No Iterations 82
time step continuity errors : sum local = 1.67172e-10, global = -1.47963e-12, cumulative = 8.22578e-07
smoothSolver:  Solving for Bx, Initial residual = 0.0236403, Final residual = 8.13843e-06, No Iterations 10
smoothSolver:  Solving for By, Initial residual = 0.0151931, Final residual = 6.208e-06, No Iterations 10
DICPCG:  Solving for pB, Initial residual = 0.020088, Final residual = 9.85796e-06, No Iterations 27
magnetic flux divergence error = 8.88404e-11
smoothSolver:  Solving for Bx, Initial residual = 8.53428e-06, Final residual = 8.53428e-06, No Iterations 0
smoothSolver:  Solving for By, Initial residual = 7.80014e-05, Final residual = 5.80803e-06, No Iterations 3
DICPCG:  Solving for pB, Initial residual = 0.000326619, Final residual = 9.61948e-06, No Iterations 7
magnetic flux divergence error = 8.82392e-11
smoothSolver:  Solving for Bx, Initial residual = 8.5347e-06, Final residual = 8.5347e-06, No Iterations 0
smoothSolver:  Solving for By, Initial residual = 5.79e-06, Final residual = 5.79e-06, No Iterations 0
DICPCG:  Solving for pB, Initial residual = 9.62017e-06, Final residual = 9.62017e-06, No Iterations 0
magnetic flux divergence error = 8.82392e-11
Time = 0.1

Courant Number mean: 0.0255573 max: 0.0614419
smoothSolver:  Solving for Ux, Initial residual = 0.00381287, Final residual = 5.01409e-06, No Iterations 8
smoothSolver:  Solving for Uy, Initial residual = 0.00490315, Final residual = 7.31152e-06, No Iterations 8
DICPCG:  Solving for p, Initial residual = 0.000786648, Final residual = 2.7416e-05, No Iterations 78
time step continuity errors : sum local = 5.04073e-09, global = -4.02835e-11, cumulative = 8.22538e-07
DICPCG:  Solving for p, Initial residual = 0.000602437, Final residual = 2.92196e-05, No Iterations 78
time step continuity errors : sum local = 5.17361e-09, global = 4.86311e-12, cumulative = 8.22542e-07
DICPCG:  Solving for p, Initial residual = 6.6228e-05, Final residual = 7.83435e-07, No Iterations 82
time step continuity errors : sum local = 1.4289e-10, global = -1.27847e-12, cumulative = 8.22541e-07
smoothSolver:  Solving for Bx, Initial residual = 0.0219915, Final residual = 7.55601e-06, No Iterations 10
smoothSolver:  Solving for By, Initial residual = 0.0141782, Final residual = 5.90059e-06, No Iterations 10
DICPCG:  Solving for pB, Initial residual = 0.0184866, Final residual = 9.74407e-06, No Iterations 27
magnetic flux divergence error = 9.09676e-11
smoothSolver:  Solving for Bx, Initial residual = 7.94042e-06, Final residual = 7.94042e-06, No Iterations 0
smoothSolver:  Solving for By, Initial residual = 7.14884e-05, Final residual = 5.35484e-06, No Iterations 3
DICPCG:  Solving for pB, Initial residual = 0.000305614, Final residual = 9.17103e-06, No Iterations 7
magnetic flux divergence error = 8.71091e-11
smoothSolver:  Solving for Bx, Initial residual = 7.94081e-06, Final residual = 7.94081e-06, No Iterations 0
smoothSolver:  Solving for By, Initial residual = 5.33796e-06, Final residual = 5.33796e-06, No Iterations 0
DICPCG:  Solving for pB, Initial residual = 9.17173e-06, Final residual = 9.17173e-06, No Iterations 0
magnetic flux divergence error = 8.71091e-11
Time = 0.105

Courant Number mean: 0.0255627 max: 0.0614629
smoothSolver:  Solving for Ux, Initial residual = 0.00340409, Final residual = 4.4763e-06, No Iterations 8
smoothSolver:  Solving for Uy, Initial residual = 0.00439426, Final residual = 6.56615e-06, No Iterations 8
DICPCG:  Solving for p, Initial residual = 0.000756238, Final residual = 2.95082e-05, No Iterations 79
time step continuity errors : sum local = 5.38535e-09, global = -2.66127e-11, cumulative = 8.22515e-07
DICPCG:  Solving for p, Initial residual = 0.000575798, Final residual = 2.04657e-05, No Iterations 80
time step continuity errors : sum local = 3.61218e-09, global = 1.18932e-11, cumulative = 8.22526e-07
DICPCG:  Solving for p, Initial residual = 4.86192e-05, Final residual = 8.45727e-07, No Iterations 82
time step continuity errors : sum local = 1.53244e-10, global = -1.90426e-12, cumulative = 8.22525e-07
smoothSolver:  Solving for Bx, Initial residual = 0.0204869, Final residual = 7.02663e-06, No Iterations 10
smoothSolver:  Solving for By, Initial residual = 0.0133009, Final residual = 5.62115e-06, No Iterations 10
DICPCG:  Solving for pB, Initial residual = 0.017018, Final residual = 9.83772e-06, No Iterations 26
magnetic flux divergence error = 9.50294e-11
smoothSolver:  Solving for Bx, Initial residual = 7.39925e-06, Final residual = 7.39925e-06, No Iterations 0
smoothSolver:  Solving for By, Initial residual = 6.56363e-05, Final residual = 4.94384e-06, No Iterations 3
DICPCG:  Solving for pB, Initial residual = 0.00028652, Final residual = 8.81491e-06, No Iterations 7
magnetic flux divergence error = 8.65715e-11
smoothSolver:  Solving for Bx, Initial residual = 7.39968e-06, Final residual = 7.39968e-06, No Iterations 0
smoothSolver:  Solving for By, Initial residual = 4.92834e-06, Final residual = 4.92834e-06, No Iterations 0
DICPCG:  Solving for pB, Initial residual = 8.8156e-06, Final residual = 8.8156e-06, No Iterations 0
magnetic flux divergence error = 8.65715e-11
Time = 0.11

Courant Number mean: 0.0255675 max: 0.0614802
smoothSolver:  Solving for Ux, Initial residual = 0.00303906, Final residual = 9.12342e-06, No Iterations 7
smoothSolver:  Solving for Uy, Initial residual = 0.0039404, Final residual = 5.88325e-06, No Iterations 8
DICPCG:  Solving for p, Initial residual = 0.000741191, Final residual = 2.6298e-05, No Iterations 78
time step continuity errors : sum local = 4.76802e-09, global = -2.03395e-11, cumulative = 8.22504e-07
DICPCG:  Solving for p, Initial residual = 0.000564553, Final residual = 2.71221e-05, No Iterations 77
time step continuity errors : sum local = 4.77462e-09, global = 1.01811e-11, cumulative = 8.22514e-07
DICPCG:  Solving for p, Initial residual = 5.58299e-05, Final residual = 6.48761e-07, No Iterations 82
time step continuity errors : sum local = 1.16873e-10, global = 1.20177e-13, cumulative = 8.22514e-07
smoothSolver:  Solving for Bx, Initial residual = 0.0191099, Final residual = 6.54394e-06, No Iterations 10
smoothSolver:  Solving for By, Initial residual = 0.0125333, Final residual = 5.36511e-06, No Iterations 10
DICPCG:  Solving for pB, Initial residual = 0.0157058, Final residual = 9.39153e-06, No Iterations 26
magnetic flux divergence error = 9.36812e-11
smoothSolver:  Solving for Bx, Initial residual = 6.90561e-06, Final residual = 6.90561e-06, No Iterations 0
smoothSolver:  Solving for By, Initial residual = 6.03632e-05, Final residual = 4.57042e-06, No Iterations 3
DICPCG:  Solving for pB, Initial residual = 0.000268972, Final residual = 8.31441e-06, No Iterations 7
magnetic flux divergence error = 8.42174e-11
smoothSolver:  Solving for Bx, Initial residual = 6.90602e-06, Final residual = 6.90602e-06, No Iterations 0
smoothSolver:  Solving for By, Initial residual = 4.55576e-06, Final residual = 4.55576e-06, No Iterations 0
DICPCG:  Solving for pB, Initial residual = 8.31504e-06, Final residual = 8.31504e-06, No Iterations 0
magnetic flux divergence error = 8.42174e-11
Time = 0.115

Courant Number mean: 0.0255719 max: 0.0614944
smoothSolver:  Solving for Ux, Initial residual = 0.00271293, Final residual = 8.14737e-06, No Iterations 7
smoothSolver:  Solving for Uy, Initial residual = 0.00353898, Final residual = 5.29078e-06, No Iterations 8
DICPCG:  Solving for p, Initial residual = 0.000714664, Final residual = 3.50331e-05, No Iterations 78
time step continuity errors : sum local = 6.31483e-09, global = -3.99206e-11, cumulative = 8.22475e-07
DICPCG:  Solving for p, Initial residual = 0.000544515, Final residual = 2.3941e-05, No Iterations 79
time step continuity errors : sum local = 4.20395e-09, global = -1.55385e-12, cumulative = 8.22473e-07
DICPCG:  Solving for p, Initial residual = 4.89958e-05, Final residual = 9.16526e-07, No Iterations 80
time step continuity errors : sum local = 1.64267e-10, global = -6.22136e-12, cumulative = 8.22467e-07
smoothSolver:  Solving for Bx, Initial residual = 0.0178468, Final residual = 6.10274e-06, No Iterations 10
smoothSolver:  Solving for By, Initial residual = 0.0118732, Final residual = 5.12982e-06, No Iterations 10
DICPCG:  Solving for pB, Initial residual = 0.0145651, Final residual = 9.90081e-06, No Iterations 25
magnetic flux divergence error = 1.01728e-10
smoothSolver:  Solving for Bx, Initial residual = 6.45354e-06, Final residual = 6.45354e-06, No Iterations 0
smoothSolver:  Solving for By, Initial residual = 5.56176e-05, Final residual = 9.88937e-06, No Iterations 2
DICPCG:  Solving for pB, Initial residual = 0.000227796, Final residual = 9.95202e-06, No Iterations 6
magnetic flux divergence error = 1.03705e-10
smoothSolver:  Solving for Bx, Initial residual = 6.45386e-06, Final residual = 6.45386e-06, No Iterations 0
smoothSolver:  Solving for By, Initial residual = 9.87734e-06, Final residual = 9.87734e-06, No Iterations 0
DICPCG:  Solving for pB, Initial residual = 9.95265e-06, Final residual = 9.95265e-06, No Iterations 0
magnetic flux divergence error = 1.03705e-10
Time = 0.12

Courant Number mean: 0.0255758 max: 0.0615061
smoothSolver:  Solving for Ux, Initial residual = 0.00242102, Final residual = 7.27323e-06, No Iterations 7
smoothSolver:  Solving for Uy, Initial residual = 0.00318156, Final residual = 4.74871e-06, No Iterations 8
DICPCG:  Solving for p, Initial residual = 0.00069913, Final residual = 2.90893e-05, No Iterations 77
time step continuity errors : sum local = 5.21649e-09, global = -3.52964e-11, cumulative = 8.22432e-07
DICPCG:  Solving for p, Initial residual = 0.000531459, Final residual = 2.48834e-05, No Iterations 78
time step continuity errors : sum local = 4.35974e-09, global = 1.94779e-12, cumulative = 8.22433e-07
DICPCG:  Solving for p, Initial residual = 4.53546e-05, Final residual = 8.7236e-07, No Iterations 80
time step continuity errors : sum local = 1.55643e-10, global = -3.8193e-12, cumulative = 8.2243e-07
smoothSolver:  Solving for Bx, Initial residual = 0.0166857, Final residual = 5.69842e-06, No Iterations 10
smoothSolver:  Solving for By, Initial residual = 0.0112964, Final residual = 4.91265e-06, No Iterations 10
DICPCG:  Solving for pB, Initial residual = 0.0135493, Final residual = 8.98118e-06, No Iterations 25
magnetic flux divergence error = 9.48217e-11
smoothSolver:  Solving for Bx, Initial residual = 6.0384e-06, Final residual = 6.0384e-06, No Iterations 0
smoothSolver:  Solving for By, Initial residual = 5.13153e-05, Final residual = 9.15078e-06, No Iterations 2
DICPCG:  Solving for pB, Initial residual = 0.000214211, Final residual = 9.361e-06, No Iterations 6
magnetic flux divergence error = 1.00117e-10
smoothSolver:  Solving for Bx, Initial residual = 6.03871e-06, Final residual = 6.03871e-06, No Iterations 0
smoothSolver:  Solving for By, Initial residual = 9.13958e-06, Final residual = 9.13958e-06, No Iterations 0
DICPCG:  Solving for pB, Initial residual = 9.36157e-06, Final residual = 9.36157e-06, No Iterations 0
magnetic flux divergence error = 1.00117e-10
Time = 0.125

Courant Number mean: 0.0255793 max: 0.0615157
smoothSolver:  Solving for Ux, Initial residual = 0.0021595, Final residual = 6.48973e-06, No Iterations 7
smoothSolver:  Solving for Uy, Initial residual = 0.00286087, Final residual = 9.61366e-06, No Iterations 7
DICPCG:  Solving for p, Initial residual = 0.000670962, Final residual = 2.79436e-05, No Iterations 78
time step continuity errors : sum local = 4.98824e-09, global = -5.07226e-11, cumulative = 8.22379e-07
DICPCG:  Solving for p, Initial residual = 0.000508116, Final residual = 2.50793e-05, No Iterations 78
time step continuity errors : sum local = 4.38551e-09, global = 2.95285e-11, cumulative = 8.22408e-07
DICPCG:  Solving for p, Initial residual = 5.41655e-05, Final residual = 7.26738e-07, No Iterations 82
time step continuity errors : sum local = 1.29142e-10, global = 7.41968e-15, cumulative = 8.22408e-07
smoothSolver:  Solving for Bx, Initial residual = 0.0156162, Final residual = 5.32703e-06, No Iterations 10
smoothSolver:  Solving for By, Initial residual = 0.0107965, Final residual = 4.71147e-06, No Iterations 10
DICPCG:  Solving for pB, Initial residual = 0.0127228, Final residual = 9.93667e-06, No Iterations 22
magnetic flux divergence error = 1.07554e-10
smoothSolver:  Solving for Bx, Initial residual = 5.65647e-06, Final residual = 5.65647e-06, No Iterations 0
smoothSolver:  Solving for By, Initial residual = 4.73989e-05, Final residual = 8.47588e-06, No Iterations 2
DICPCG:  Solving for pB, Initial residual = 0.000202784, Final residual = 8.95608e-06, No Iterations 6
magnetic flux divergence error = 9.80933e-11
smoothSolver:  Solving for Bx, Initial residual = 5.65682e-06, Final residual = 5.65682e-06, No Iterations 0
smoothSolver:  Solving for By, Initial residual = 8.46556e-06, Final residual = 8.46556e-06, No Iterations 0
DICPCG:  Solving for pB, Initial residual = 8.95659e-06, Final residual = 8.95659e-06, No Iterations 0
magnetic flux divergence error = 9.80933e-11
Time = 0.13

Courant Number mean: 0.0255824 max: 0.0615236
smoothSolver:  Solving for Ux, Initial residual = 0.00192506, Final residual = 5.78704e-06, No Iterations 7
smoothSolver:  Solving for Uy, Initial residual = 0.00257459, Final residual = 8.63844e-06, No Iterations 7
DICPCG:  Solving for p, Initial residual = 0.00065394, Final residual = 2.3608e-05, No Iterations 78
time step continuity errors : sum local = 4.19731e-09, global = -3.81764e-11, cumulative = 8.2237e-07
DICPCG:  Solving for p, Initial residual = 0.000494484, Final residual = 2.19104e-05, No Iterations 78
time step continuity errors : sum local = 3.82485e-09, global = 6.01261e-12, cumulative = 8.22376e-07
DICPCG:  Solving for p, Initial residual = 4.73128e-05, Final residual = 7.76234e-07, No Iterations 81
time step continuity errors : sum local = 1.37445e-10, global = -5.4069e-13, cumulative = 8.22376e-07
smoothSolver:  Solving for Bx, Initial residual = 0.0146291, Final residual = 4.98516e-06, No Iterations 10
smoothSolver:  Solving for By, Initial residual = 0.0103547, Final residual = 9.81438e-06, No Iterations 9
DICPCG:  Solving for pB, Initial residual = 0.0119794, Final residual = 9.53184e-06, No Iterations 19
magnetic flux divergence error = 1.05547e-10
smoothSolver:  Solving for Bx, Initial residual = 5.30415e-06, Final residual = 5.30415e-06, No Iterations 0
smoothSolver:  Solving for By, Initial residual = 4.41844e-05, Final residual = 7.9606e-06, No Iterations 2
DICPCG:  Solving for pB, Initial residual = 0.000188725, Final residual = 9.57746e-06, No Iterations 6
magnetic flux divergence error = 1.07205e-10
smoothSolver:  Solving for Bx, Initial residual = 5.30434e-06, Final residual = 5.30434e-06, No Iterations 0
smoothSolver:  Solving for By, Initial residual = 7.94812e-06, Final residual = 7.94812e-06, No Iterations 0
DICPCG:  Solving for pB, Initial residual = 9.57802e-06, Final residual = 9.57802e-06, No Iterations 0
magnetic flux divergence error = 1.07205e-10
Time = 0.135

Courant Number mean: 0.0255852 max: 0.0615301
smoothSolver:  Solving for Ux, Initial residual = 0.00171479, Final residual = 5.15777e-06, No Iterations 7
smoothSolver:  Solving for Uy, Initial residual = 0.00231857, Final residual = 7.76931e-06, No Iterations 7
DICPCG:  Solving for p, Initial residual = 0.000636348, Final residual = 2.22828e-05, No Iterations 78
time step continuity errors : sum local = 3.94759e-09, global = -4.25137e-11, cumulative = 8.22333e-07
DICPCG:  Solving for p, Initial residual = 0.000480901, Final residual = 1.97796e-05, No Iterations 78
time step continuity errors : sum local = 3.4478e-09, global = 2.00575e-11, cumulative = 8.22353e-07
DICPCG:  Solving for p, Initial residual = 4.30731e-05, Final residual = 7.58806e-07, No Iterations 81
time step continuity errors : sum local = 1.33936e-10, global = 4.95997e-13, cumulative = 8.22354e-07
smoothSolver:  Solving for Bx, Initial residual = 0.0137166, Final residual = 4.6698e-06, No Iterations 10
smoothSolver:  Solving for By, Initial residual = 0.00996115, Final residual = 9.43779e-06, No Iterations 9
DICPCG:  Solving for pB, Initial residual = 0.0113366, Final residual = 9.86881e-06, No Iterations 19
magnetic flux divergence error = 1.11574e-10
smoothSolver:  Solving for Bx, Initial residual = 4.97866e-06, Final residual = 4.97866e-06, No Iterations 0
smoothSolver:  Solving for By, Initial residual = 4.10372e-05, Final residual = 7.40442e-06, No Iterations 2
DICPCG:  Solving for pB, Initial residual = 0.000179014, Final residual = 8.80373e-06, No Iterations 7
magnetic flux divergence error = 1.0052e-10
smoothSolver:  Solving for Bx, Initial residual = 4.97896e-06, Final residual = 4.97896e-06, No Iterations 0
smoothSolver:  Solving for By, Initial residual = 7.39281e-06, Final residual = 7.39281e-06, No Iterations 0
DICPCG:  Solving for pB, Initial residual = 8.80429e-06, Final residual = 8.80429e-06, No Iterations 0
magnetic flux divergence error = 1.0052e-10
Time = 0.14

Courant Number mean: 0.0255877 max: 0.0615354
smoothSolver:  Solving for Ux, Initial residual = 0.00152614, Final residual = 4.59295e-06, No Iterations 7
smoothSolver:  Solving for Uy, Initial residual = 0.0020885, Final residual = 6.98293e-06, No Iterations 7
DICPCG:  Solving for p, Initial residual = 0.000618872, Final residual = 2.75715e-05, No Iterations 77
time step continuity errors : sum local = 4.86917e-09, global = -6.82892e-11, cumulative = 8.22285e-07
DICPCG:  Solving for p, Initial residual = 0.000469545, Final residual = 1.65618e-05, No Iterations 78
time step continuity errors : sum local = 2.88325e-09, global = 1.18935e-11, cumulative = 8.22297e-07
DICPCG:  Solving for p, Initial residual = 3.25807e-05, Final residual = 9.70108e-07, No Iterations 80
time step continuity errors : sum local = 1.70765e-10, global = -8.57145e-13, cumulative = 8.22297e-07
smoothSolver:  Solving for Bx, Initial residual = 0.0128716, Final residual = 9.73279e-06, No Iterations 9
smoothSolver:  Solving for By, Initial residual = 0.00960868, Final residual = 9.08539e-06, No Iterations 9
DICPCG:  Solving for pB, Initial residual = 0.0108723, Final residual = 8.54336e-06, No Iterations 18
magnetic flux divergence error = 9.84478e-11
smoothSolver:  Solving for Bx, Initial residual = 9.75525e-06, Final residual = 9.75525e-06, No Iterations 0
smoothSolver:  Solving for By, Initial residual = 3.81348e-05, Final residual = 6.89065e-06, No Iterations 2
DICPCG:  Solving for pB, Initial residual = 0.000168377, Final residual = 9.10129e-06, No Iterations 6
magnetic flux divergence error = 1.05836e-10
smoothSolver:  Solving for Bx, Initial residual = 9.75529e-06, Final residual = 9.75529e-06, No Iterations 0
smoothSolver:  Solving for By, Initial residual = 6.87973e-06, Final residual = 6.87973e-06, No Iterations 0
DICPCG:  Solving for pB, Initial residual = 9.10185e-06, Final residual = 9.10185e-06, No Iterations 0
magnetic flux divergence error = 1.05836e-10
Time = 0.145

Courant Number mean: 0.02559 max: 0.0615396
smoothSolver:  Solving for Ux, Initial residual = 0.00135686, Final residual = 9.35072e-06, No Iterations 6
smoothSolver:  Solving for Uy, Initial residual = 0.00188151, Final residual = 6.27784e-06, No Iterations 7
DICPCG:  Solving for p, Initial residual = 0.00060517, Final residual = 2.53412e-05, No Iterations 77
time step continuity errors : sum local = 4.46296e-09, global = -5.75719e-11, cumulative = 8.22239e-07
DICPCG:  Solving for p, Initial residual = 0.000460053, Final residual = 2.22415e-05, No Iterations 77
time step continuity errors : sum local = 3.86865e-09, global = 2.20072e-11, cumulative = 8.22261e-07
DICPCG:  Solving for p, Initial residual = 4.37965e-05, Final residual = 7.33225e-07, No Iterations 81
time step continuity errors : sum local = 1.28758e-10, global = 1.22846e-12, cumulative = 8.22262e-07
smoothSolver:  Solving for Bx, Initial residual = 0.012088, Final residual = 9.13334e-06, No Iterations 9
smoothSolver:  Solving for By, Initial residual = 0.0092857, Final residual = 8.7549e-06, No Iterations 9
DICPCG:  Solving for pB, Initial residual = 0.0105316, Final residual = 9.11009e-06, No Iterations 17
magnetic flux divergence error = 1.06827e-10
smoothSolver:  Solving for Bx, Initial residual = 9.16356e-06, Final residual = 9.16356e-06, No Iterations 0
smoothSolver:  Solving for By, Initial residual = 3.54827e-05, Final residual = 6.42139e-06, No Iterations 2
DICPCG:  Solving for pB, Initial residual = 0.000160398, Final residual = 8.59451e-06, No Iterations 6
magnetic flux divergence error = 1.01619e-10
smoothSolver:  Solving for Bx, Initial residual = 9.16357e-06, Final residual = 9.16357e-06, No Iterations 0
smoothSolver:  Solving for By, Initial residual = 6.41026e-06, Final residual = 6.41026e-06, No Iterations 0
DICPCG:  Solving for pB, Initial residual = 8.59505e-06, Final residual = 8.59505e-06, No Iterations 0
magnetic flux divergence error = 1.01619e-10
Time = 0.15

Courant Number mean: 0.0255919 max: 0.061543
smoothSolver:  Solving for Ux, Initial residual = 0.00120519, Final residual = 8.30962e-06, No Iterations 6
smoothSolver:  Solving for Uy, Initial residual = 0.00169656, Final residual = 5.6456e-06, No Iterations 7
DICPCG:  Solving for p, Initial residual = 0.000588309, Final residual = 2.53797e-05, No Iterations 77
time step continuity errors : sum local = 4.45899e-09, global = -1.74911e-11, cumulative = 8.22245e-07
DICPCG:  Solving for p, Initial residual = 0.000447067, Final residual = 1.55508e-05, No Iterations 78
time step continuity errors : sum local = 2.70233e-09, global = -9.6156e-12, cumulative = 8.22235e-07
DICPCG:  Solving for p, Initial residual = 3.022e-05, Final residual = 7.04612e-07, No Iterations 81
time step continuity errors : sum local = 1.23475e-10, global = 6.769e-13, cumulative = 8.22236e-07
smoothSolver:  Solving for Bx, Initial residual = 0.0113602, Final residual = 8.57747e-06, No Iterations 9
smoothSolver:  Solving for By, Initial residual = 0.00898172, Final residual = 8.44437e-06, No Iterations 9
DICPCG:  Solving for pB, Initial residual = 0.0102464, Final residual = 9.48179e-06, No Iterations 16
magnetic flux divergence error = 1.1296e-10
smoothSolver:  Solving for Bx, Initial residual = 8.61443e-06, Final residual = 8.61443e-06, No Iterations 0
smoothSolver:  Solving for By, Initial residual = 3.30406e-05, Final residual = 5.98868e-06, No Iterations 2
DICPCG:  Solving for pB, Initial residual = 0.000153131, Final residual = 8.52481e-06, No Iterations 6
magnetic flux divergence error = 1.02323e-10
smoothSolver:  Solving for Bx, Initial residual = 8.61441e-06, Final residual = 8.61441e-06, No Iterations 0
smoothSolver:  Solving for By, Initial residual = 5.97864e-06, Final residual = 5.97864e-06, No Iterations 0
DICPCG:  Solving for pB, Initial residual = 8.52533e-06, Final residual = 8.52533e-06, No Iterations 0
magnetic flux divergence error = 1.02323e-10
Time = 0.155

Courant Number mean: 0.0255937 max: 0.0615456
smoothSolver:  Solving for Ux, Initial residual = 0.00106904, Final residual = 7.37457e-06, No Iterations 6
smoothSolver:  Solving for Uy, Initial residual = 0.00152936, Final residual = 5.07374e-06, No Iterations 7
DICPCG:  Solving for p, Initial residual = 0.00057184, Final residual = 2.07633e-05, No Iterations 77
time step continuity errors : sum local = 3.64024e-09, global = -4.40827e-11, cumulative = 8.22192e-07
DICPCG:  Solving for p, Initial residual = 0.000434691, Final residual = 1.71038e-05, No Iterations 77
time step continuity errors : sum local = 2.96989e-09, global = 2.14034e-11, cumulative = 8.22213e-07
DICPCG:  Solving for p, Initial residual = 3.43914e-05, Final residual = 8.14851e-07, No Iterations 81
time step continuity errors : sum local = 1.42535e-10, global = 4.53978e-13, cumulative = 8.22214e-07
smoothSolver:  Solving for Bx, Initial residual = 0.0106834, Final residual = 8.06123e-06, No Iterations 9
smoothSolver:  Solving for By, Initial residual = 0.00869331, Final residual = 8.15156e-06, No Iterations 9
DICPCG:  Solving for pB, Initial residual = 0.0100414, Final residual = 8.70581e-06, No Iterations 16
magnetic flux divergence error = 1.05212e-10
smoothSolver:  Solving for Bx, Initial residual = 8.10362e-06, Final residual = 8.10362e-06, No Iterations 0
smoothSolver:  Solving for By, Initial residual = 3.08443e-05, Final residual = 5.59143e-06, No Iterations 2
DICPCG:  Solving for pB, Initial residual = 0.000145945, Final residual = 8.34129e-06, No Iterations 6
magnetic flux divergence error = 1.01491e-10
smoothSolver:  Solving for Bx, Initial residual = 8.10374e-06, Final residual = 8.10374e-06, No Iterations 0
smoothSolver:  Solving for By, Initial residual = 5.58053e-06, Final residual = 5.58053e-06, No Iterations 0
DICPCG:  Solving for pB, Initial residual = 8.34182e-06, Final residual = 8.34182e-06, No Iterations 0
magnetic flux divergence error = 1.01491e-10
Time = 0.16

Courant Number mean: 0.0255953 max: 0.0615477
smoothSolver:  Solving for Ux, Initial residual = 0.000946842, Final residual = 6.5349e-06, No Iterations 6
smoothSolver:  Solving for Uy, Initial residual = 0.00137902, Final residual = 4.5583e-06, No Iterations 7
DICPCG:  Solving for p, Initial residual = 0.000554702, Final residual = 1.99563e-05, No Iterations 77
time step continuity errors : sum local = 3.49234e-09, global = -2.72553e-11, cumulative = 8.22186e-07
DICPCG:  Solving for p, Initial residual = 0.00042142, Final residual = 1.74406e-05, No Iterations 77
time step continuity errors : sum local = 3.0264e-09, global = 1.04423e-11, cumulative = 8.22197e-07
DICPCG:  Solving for p, Initial residual = 3.46333e-05, Final residual = 9.98087e-07, No Iterations 79
time step continuity errors : sum local = 1.74309e-10, global = -6.16505e-12, cumulative = 8.22191e-07
smoothSolver:  Solving for Bx, Initial residual = 0.0100531, Final residual = 7.58113e-06, No Iterations 9
smoothSolver:  Solving for By, Initial residual = 0.00841931, Final residual = 7.87505e-06, No Iterations 9
DICPCG:  Solving for pB, Initial residual = 0.00992041, Final residual = 8.81956e-06, No Iterations 17
magnetic flux divergence error = 1.07969e-10
smoothSolver:  Solving for Bx, Initial residual = 7.62814e-06, Final residual = 7.62814e-06, No Iterations 0
smoothSolver:  Solving for By, Initial residual = 2.88187e-05, Final residual = 5.22538e-06, No Iterations 2
DICPCG:  Solving for pB, Initial residual = 0.000139199, Final residual = 7.86806e-06, No Iterations 6
magnetic flux divergence error = 9.69086e-11
smoothSolver:  Solving for Bx, Initial residual = 7.62831e-06, Final residual = 7.62831e-06, No Iterations 0
smoothSolver:  Solving for By, Initial residual = 5.21454e-06, Final residual = 5.21454e-06, No Iterations 0
DICPCG:  Solving for pB, Initial residual = 7.86854e-06, Final residual = 7.86854e-06, No Iterations 0
magnetic flux divergence error = 9.69086e-11
Time = 0.165

Courant Number mean: 0.0255967 max: 0.0615492
smoothSolver:  Solving for Ux, Initial residual = 0.000837191, Final residual = 5.78107e-06, No Iterations 6
smoothSolver:  Solving for Uy, Initial residual = 0.00124305, Final residual = 9.24248e-06, No Iterations 6
DICPCG:  Solving for p, Initial residual = 0.000532735, Final residual = 1.85945e-05, No Iterations 77
time step continuity errors : sum local = 3.24882e-09, global = -2.9212e-11, cumulative = 8.22161e-07
DICPCG:  Solving for p, Initial residual = 0.000403638, Final residual = 1.51045e-05, No Iterations 77
time step continuity errors : sum local = 2.61963e-09, global = 9.97589e-12, cumulative = 8.22171e-07
DICPCG:  Solving for p, Initial residual = 3.05613e-05, Final residual = 9.01733e-07, No Iterations 79
time step continuity errors : sum local = 1.57263e-10, global = -6.24493e-12, cumulative = 8.22165e-07
smoothSolver:  Solving for Bx, Initial residual = 0.00946537, Final residual = 7.13403e-06, No Iterations 9
smoothSolver:  Solving for By, Initial residual = 0.00815785, Final residual = 7.61277e-06, No Iterations 9
DICPCG:  Solving for pB, Initial residual = 0.00986563, Final residual = 7.51949e-06, No Iterations 18
magnetic flux divergence error = 9.31214e-11
smoothSolver:  Solving for Bx, Initial residual = 7.1849e-06, Final residual = 7.1849e-06, No Iterations 0
smoothSolver:  Solving for By, Initial residual = 2.69388e-05, Final residual = 4.88667e-06, No Iterations 2
DICPCG:  Solving for pB, Initial residual = 0.000132479, Final residual = 8.1399e-06, No Iterations 6
magnetic flux divergence error = 1.01352e-10
smoothSolver:  Solving for Bx, Initial residual = 7.18503e-06, Final residual = 7.18503e-06, No Iterations 0
smoothSolver:  Solving for By, Initial residual = 4.87616e-06, Final residual = 4.87616e-06, No Iterations 0
DICPCG:  Solving for pB, Initial residual = 8.14038e-06, Final residual = 8.14038e-06, No Iterations 0
magnetic flux divergence error = 1.01352e-10
Time = 0.17

Courant Number mean: 0.0255979 max: 0.0615503
smoothSolver:  Solving for Ux, Initial residual = 0.000738818, Final residual = 5.10454e-06, No Iterations 6
smoothSolver:  Solving for Uy, Initial residual = 0.0011208, Final residual = 8.2992e-06, No Iterations 6
DICPCG:  Solving for p, Initial residual = 0.00051727, Final residual = 1.63366e-05, No Iterations 77
time step continuity errors : sum local = 2.85039e-09, global = -2.53564e-11, cumulative = 8.2214e-07
DICPCG:  Solving for p, Initial residual = 0.000392043, Final residual = 1.28394e-05, No Iterations 77
time step continuity errors : sum local = 2.22584e-09, global = 1.12551e-11, cumulative = 8.22151e-07
DICPCG:  Solving for p, Initial residual = 2.65993e-05, Final residual = 7.65637e-07, No Iterations 79
time step continuity errors : sum local = 1.33376e-10, global = -4.83762e-12, cumulative = 8.22146e-07
smoothSolver:  Solving for Bx, Initial residual = 0.00891683, Final residual = 6.71718e-06, No Iterations 9
smoothSolver:  Solving for By, Initial residual = 0.00790804, Final residual = 7.36359e-06, No Iterations 9
DICPCG:  Solving for pB, Initial residual = 0.00982461, Final residual = 8.89619e-06, No Iterations 18
magnetic flux divergence error = 1.11308e-10
smoothSolver:  Solving for Bx, Initial residual = 6.77127e-06, Final residual = 6.77127e-06, No Iterations 0
smoothSolver:  Solving for By, Initial residual = 2.51972e-05, Final residual = 4.57657e-06, No Iterations 2
DICPCG:  Solving for pB, Initial residual = 0.000127512, Final residual = 7.75469e-06, No Iterations 6
magnetic flux divergence error = 9.74947e-11
smoothSolver:  Solving for Bx, Initial residual = 6.77143e-06, Final residual = 6.77143e-06, No Iterations 0
smoothSolver:  Solving for By, Initial residual = 4.56508e-06, Final residual = 4.56508e-06, No Iterations 0
DICPCG:  Solving for pB, Initial residual = 7.75516e-06, Final residual = 7.75516e-06, No Iterations 0
magnetic flux divergence error = 9.74947e-11
Time = 0.175

Courant Number mean: 0.025599 max: 0.061551
smoothSolver:  Solving for Ux, Initial residual = 0.000650599, Final residual = 4.49762e-06, No Iterations 6
smoothSolver:  Solving for Uy, Initial residual = 0.00101035, Final residual = 7.44873e-06, No Iterations 6
DICPCG:  Solving for p, Initial residual = 0.000502682, Final residual = 1.54533e-05, No Iterations 77
time step continuity errors : sum local = 2.69308e-09, global = -2.60407e-11, cumulative = 8.2212e-07
DICPCG:  Solving for p, Initial residual = 0.00038107, Final residual = 1.20322e-05, No Iterations 77
time step continuity errors : sum local = 2.08523e-09, global = 1.46897e-11, cumulative = 8.22135e-07
DICPCG:  Solving for p, Initial residual = 2.47224e-05, Final residual = 9.48711e-07, No Iterations 78
time step continuity errors : sum local = 1.65101e-10, global = -4.79139e-12, cumulative = 8.2213e-07
smoothSolver:  Solving for Bx, Initial residual = 0.00840429, Final residual = 6.32806e-06, No Iterations 9
smoothSolver:  Solving for By, Initial residual = 0.0076698, Final residual = 7.1272e-06, No Iterations 9
DICPCG:  Solving for pB, Initial residual = 0.0098157, Final residual = 7.61325e-06, No Iterations 19
magnetic flux divergence error = 9.61315e-11
smoothSolver:  Solving for Bx, Initial residual = 6.38518e-06, Final residual = 6.38518e-06, No Iterations 0
smoothSolver:  Solving for By, Initial residual = 2.35841e-05, Final residual = 9.99419e-06, No Iterations 1
DICPCG:  Solving for pB, Initial residual = 8.87025e-05, Final residual = 8.53562e-06, No Iterations 5
magnetic flux divergence error = 1.08245e-10
smoothSolver:  Solving for Bx, Initial residual = 6.3853e-06, Final residual = 6.3853e-06, No Iterations 0
smoothSolver:  Solving for By, Initial residual = 9.98695e-06, Final residual = 9.98695e-06, No Iterations 0
DICPCG:  Solving for pB, Initial residual = 8.53596e-06, Final residual = 8.53596e-06, No Iterations 0
magnetic flux divergence error = 1.08245e-10
Time = 0.18

Courant Number mean: 0.0256 max: 0.0615514
smoothSolver:  Solving for Ux, Initial residual = 0.000571525, Final residual = 9.04842e-06, No Iterations 5
smoothSolver:  Solving for Uy, Initial residual = 0.000910876, Final residual = 6.68168e-06, No Iterations 6
DICPCG:  Solving for p, Initial residual = 0.000493835, Final residual = 2.39331e-05, No Iterations 75
time step continuity errors : sum local = 4.16667e-09, global = -9.4757e-13, cumulative = 8.22129e-07
DICPCG:  Solving for p, Initial residual = 0.000374349, Final residual = 1.6117e-05, No Iterations 76
time step continuity errors : sum local = 2.79291e-09, global = 7.03106e-11, cumulative = 8.22199e-07
DICPCG:  Solving for p, Initial residual = 2.83684e-05, Final residual = 8.19322e-07, No Iterations 75
time step continuity errors : sum local = 1.42463e-10, global = -9.15624e-13, cumulative = 8.22198e-07
smoothSolver:  Solving for Bx, Initial residual = 0.00792477, Final residual = 5.96431e-06, No Iterations 9
smoothSolver:  Solving for By, Initial residual = 0.00744262, Final residual = 6.90287e-06, No Iterations 9
DICPCG:  Solving for pB, Initial residual = 0.0098324, Final residual = 8.50919e-06, No Iterations 19
magnetic flux divergence error = 1.08329e-10
smoothSolver:  Solving for Bx, Initial residual = 6.02455e-06, Final residual = 6.02455e-06, No Iterations 0
smoothSolver:  Solving for By, Initial residual = 2.21029e-05, Final residual = 9.36851e-06, No Iterations 1
DICPCG:  Solving for pB, Initial residual = 8.58985e-05, Final residual = 8.48611e-06, No Iterations 5
magnetic flux divergence error = 1.08453e-10
smoothSolver:  Solving for Bx, Initial residual = 6.0247e-06, Final residual = 6.0247e-06, No Iterations 0
smoothSolver:  Solving for By, Initial residual = 9.36203e-06, Final residual = 9.36203e-06, No Iterations 0
DICPCG:  Solving for pB, Initial residual = 8.48645e-06, Final residual = 8.48645e-06, No Iterations 0
magnetic flux divergence error = 1.08453e-10
Time = 0.185

Courant Number mean: 0.0256009 max: 0.0615515
smoothSolver:  Solving for Ux, Initial residual = 0.000500927, Final residual = 7.93571e-06, No Iterations 5
smoothSolver:  Solving for Uy, Initial residual = 0.00082125, Final residual = 5.99313e-06, No Iterations 6
DICPCG:  Solving for p, Initial residual = 0.000478846, Final residual = 1.80875e-05, No Iterations 76
time step continuity errors : sum local = 3.1463e-09, global = -3.41899e-11, cumulative = 8.22164e-07
DICPCG:  Solving for p, Initial residual = 0.000362362, Final residual = 1.21643e-05, No Iterations 77
time step continuity errors : sum local = 2.10753e-09, global = 8.51392e-12, cumulative = 8.22173e-07
DICPCG:  Solving for p, Initial residual = 2.16461e-05, Final residual = 9.66346e-07, No Iterations 11
time step continuity errors : sum local = 1.67911e-10, global = -2.05222e-11, cumulative = 8.22152e-07
smoothSolver:  Solving for Bx, Initial residual = 0.00747587, Final residual = 5.62411e-06, No Iterations 9
smoothSolver:  Solving for By, Initial residual = 0.00722572, Final residual = 6.68971e-06, No Iterations 9
DICPCG:  Solving for pB, Initial residual = 0.00990615, Final residual = 9.39736e-06, No Iterations 19
magnetic flux divergence error = 1.20505e-10
smoothSolver:  Solving for Bx, Initial residual = 5.68751e-06, Final residual = 5.68751e-06, No Iterations 0
smoothSolver:  Solving for By, Initial residual = 2.07582e-05, Final residual = 8.801e-06, No Iterations 1
DICPCG:  Solving for pB, Initial residual = 8.32717e-05, Final residual = 8.50049e-06, No Iterations 5
magnetic flux divergence error = 1.0937e-10
smoothSolver:  Solving for Bx, Initial residual = 5.68766e-06, Final residual = 5.68766e-06, No Iterations 0
smoothSolver:  Solving for By, Initial residual = 8.79381e-06, Final residual = 8.79381e-06, No Iterations 0
DICPCG:  Solving for pB, Initial residual = 8.50083e-06, Final residual = 8.50083e-06, No Iterations 0
magnetic flux divergence error = 1.0937e-10
Time = 0.19

Courant Number mean: 0.0256016 max: 0.0615514
smoothSolver:  Solving for Ux, Initial residual = 0.00043775, Final residual = 6.93927e-06, No Iterations 5
smoothSolver:  Solving for Uy, Initial residual = 0.000740442, Final residual = 5.37045e-06, No Iterations 6
DICPCG:  Solving for p, Initial residual = 0.000463651, Final residual = 2.20812e-05, No Iterations 75
time step continuity errors : sum local = 3.83818e-09, global = -1.10149e-10, cumulative = 8.22042e-07
DICPCG:  Solving for p, Initial residual = 0.000350742, Final residual = 1.55147e-05, No Iterations 76
time step continuity errors : sum local = 2.68796e-09, global = 4.63419e-11, cumulative = 8.22088e-07
DICPCG:  Solving for p, Initial residual = 2.67595e-05, Final residual = 9.33688e-07, No Iterations 14
time step continuity errors : sum local = 1.62143e-10, global = -2.56405e-11, cumulative = 8.22063e-07
smoothSolver:  Solving for Bx, Initial residual = 0.00705529, Final residual = 5.30562e-06, No Iterations 9
smoothSolver:  Solving for By, Initial residual = 0.00701841, Final residual = 6.48692e-06, No Iterations 9
DICPCG:  Solving for pB, Initial residual = 0.00998729, Final residual = 8.3598e-06, No Iterations 20
magnetic flux divergence error = 1.07875e-10
smoothSolver:  Solving for Bx, Initial residual = 5.37168e-06, Final residual = 5.37168e-06, No Iterations 0
smoothSolver:  Solving for By, Initial residual = 1.95085e-05, Final residual = 8.27619e-06, No Iterations 1
DICPCG:  Solving for pB, Initial residual = 7.94875e-05, Final residual = 8.45934e-06, No Iterations 5
magnetic flux divergence error = 1.09477e-10
smoothSolver:  Solving for Bx, Initial residual = 5.37182e-06, Final residual = 5.37182e-06, No Iterations 0
smoothSolver:  Solving for By, Initial residual = 8.26977e-06, Final residual = 8.26977e-06, No Iterations 0
DICPCG:  Solving for pB, Initial residual = 8.45967e-06, Final residual = 8.45967e-06, No Iterations 0
magnetic flux divergence error = 1.09477e-10
Time = 0.195

Courant Number mean: 0.0256023 max: 0.0615511
smoothSolver:  Solving for Ux, Initial residual = 0.000381137, Final residual = 6.04669e-06, No Iterations 5
smoothSolver:  Solving for Uy, Initial residual = 0.000667425, Final residual = 4.80849e-06, No Iterations 6
DICPCG:  Solving for p, Initial residual = 0.000448641, Final residual = 1.89403e-05, No Iterations 76
time step continuity errors : sum local = 3.29029e-09, global = -1.56014e-11, cumulative = 8.22047e-07
DICPCG:  Solving for p, Initial residual = 0.000338766, Final residual = 1.35252e-05, No Iterations 76
time step continuity errors : sum local = 2.34305e-09, global = 5.4482e-11, cumulative = 8.22102e-07
DICPCG:  Solving for p, Initial residual = 2.79957e-05, Final residual = 9.46629e-07, No Iterations 13
time step continuity errors : sum local = 1.64316e-10, global = -1.76462e-11, cumulative = 8.22084e-07
smoothSolver:  Solving for Bx, Initial residual = 0.00666092, Final residual = 5.00721e-06, No Iterations 9
smoothSolver:  Solving for By, Initial residual = 0.00681983, Final residual = 6.29353e-06, No Iterations 9
DICPCG:  Solving for pB, Initial residual = 0.0100778, Final residual = 9.09831e-06, No Iterations 20
magnetic flux divergence error = 1.18034e-10
smoothSolver:  Solving for Bx, Initial residual = 5.07579e-06, Final residual = 5.07579e-06, No Iterations 0
smoothSolver:  Solving for By, Initial residual = 1.83448e-05, Final residual = 7.78703e-06, No Iterations 1
DICPCG:  Solving for pB, Initial residual = 7.70263e-05, Final residual = 9.45134e-06, No Iterations 5
magnetic flux divergence error = 1.22913e-10
smoothSolver:  Solving for Bx, Initial residual = 5.07592e-06, Final residual = 5.07592e-06, No Iterations 0
smoothSolver:  Solving for By, Initial residual = 7.78135e-06, Final residual = 7.78135e-06, No Iterations 0
DICPCG:  Solving for pB, Initial residual = 9.45169e-06, Final residual = 9.45169e-06, No Iterations 0
magnetic flux divergence error = 1.22913e-10
Time = 0.2

Courant Number mean: 0.0256028 max: 0.0615507
smoothSolver:  Solving for Ux, Initial residual = 0.000330529, Final residual = 5.24845e-06, No Iterations 5
smoothSolver:  Solving for Uy, Initial residual = 0.000602118, Final residual = 9.77066e-06, No Iterations 5
DICPCG:  Solving for p, Initial residual = 0.000428907, Final residual = 1.51754e-05, No Iterations 76
time step continuity errors : sum local = 2.63498e-09, global = -4.26908e-11, cumulative = 8.22041e-07
DICPCG:  Solving for p, Initial residual = 0.000321962, Final residual = 1.56735e-05, No Iterations 76
time step continuity errors : sum local = 2.71513e-09, global = 3.29936e-11, cumulative = 8.22074e-07
DICPCG:  Solving for p, Initial residual = 2.93366e-05, Final residual = 9.14729e-07, No Iterations 12
time step continuity errors : sum local = 1.58717e-10, global = -1.93079e-11, cumulative = 8.22055e-07
smoothSolver:  Solving for Bx, Initial residual = 0.00629084, Final residual = 4.72737e-06, No Iterations 9
smoothSolver:  Solving for By, Initial residual = 0.00662918, Final residual = 6.10867e-06, No Iterations 9
DICPCG:  Solving for pB, Initial residual = 0.0101765, Final residual = 9.42281e-06, No Iterations 21
magnetic flux divergence error = 1.22789e-10
[...]
smoothSolver:  Solving for Ux, Initial residual = 2.96863e-08, Final residual = 2.96863e-08, No Iterations 0
smoothSolver:  Solving for Uy, Initial residual = 2.91879e-07, Final residual = 2.91879e-07, No Iterations 0
DICPCG:  Solving for p, Initial residual = 8.83838e-07, Final residual = 8.83838e-07, No Iterations 0
time step continuity errors : sum local = 1.54544e-10, global = 4.20552e-11, cumulative = 8.23463e-07
DICPCG:  Solving for p, Initial residual = 9.36468e-07, Final residual = 9.36468e-07, No Iterations 0
time step continuity errors : sum local = 1.63746e-10, global = 4.29171e-11, cumulative = 8.23506e-07
DICPCG:  Solving for p, Initial residual = 9.79639e-07, Final residual = 9.79639e-07, No Iterations 0
time step continuity errors : sum local = 1.71295e-10, global = 4.36007e-11, cumulative = 8.2355e-07
smoothSolver:  Solving for Bx, Initial residual = 9.96711e-06, Final residual = 9.96711e-06, No Iterations 0
smoothSolver:  Solving for By, Initial residual = 6.23884e-05, Final residual = 6.02654e-06, No Iterations 3
DICPCG:  Solving for pB, Initial residual = 0.000152013, Final residual = 9.86414e-06, No Iterations 8
magnetic flux divergence error = 4.83545e-10
smoothSolver:  Solving for Bx, Initial residual = 9.96886e-06, Final residual = 9.96886e-06, No Iterations 0
smoothSolver:  Solving for By, Initial residual = 6.02582e-06, Final residual = 6.02582e-06, No Iterations 0
DICPCG:  Solving for pB, Initial residual = 9.8627e-06, Final residual = 9.8627e-06, No Iterations 0
magnetic flux divergence error = 4.83545e-10
smoothSolver:  Solving for Bx, Initial residual = 9.96886e-06, Final residual = 9.96886e-06, No Iterations 0
smoothSolver:  Solving for By, Initial residual = 6.02582e-06, Final residual = 6.02582e-06, No Iterations 0
DICPCG:  Solving for pB, Initial residual = 9.8627e-06, Final residual = 9.8627e-06, No Iterations 0
magnetic flux divergence error = 4.83545e-10
Time = 1.96

Courant Number mean: 0.0256037 max: 0.0615183
smoothSolver:  Solving for Ux, Initial residual = 2.87285e-08, Final residual = 2.87285e-08, No Iterations 0
smoothSolver:  Solving for Uy, Initial residual = 2.82205e-07, Final residual = 2.82205e-07, No Iterations 0
DICPCG:  Solving for p, Initial residual = 1.05033e-06, Final residual = 8.08251e-07, No Iterations 1
time step continuity errors : sum local = 1.41327e-10, global = 4.42397e-11, cumulative = 8.23594e-07
DICPCG:  Solving for p, Initial residual = 9.91967e-07, Final residual = 9.91967e-07, No Iterations 0
time step continuity errors : sum local = 1.7345e-10, global = 4.47535e-11, cumulative = 8.23639e-07
DICPCG:  Solving for p, Initial residual = 1.15147e-06, Final residual = 7.70593e-07, No Iterations 1
time step continuity errors : sum local = 1.34742e-10, global = 4.48145e-11, cumulative = 8.23683e-07
smoothSolver:  Solving for Bx, Initial residual = 9.96895e-06, Final residual = 9.96895e-06, No Iterations 0
smoothSolver:  Solving for By, Initial residual = 6.17593e-05, Final residual = 5.96578e-06, No Iterations 3
DICPCG:  Solving for pB, Initial residual = 0.000152287, Final residual = 5.96725e-06, No Iterations 9
magnetic flux divergence error = 2.92603e-10
smoothSolver:  Solving for Bx, Initial residual = 9.97115e-06, Final residual = 9.97115e-06, No Iterations 0
smoothSolver:  Solving for By, Initial residual = 5.96504e-06, Final residual = 5.96504e-06, No Iterations 0
DICPCG:  Solving for pB, Initial residual = 5.96637e-06, Final residual = 5.96637e-06, No Iterations 0
magnetic flux divergence error = 2.92603e-10
smoothSolver:  Solving for Bx, Initial residual = 9.97115e-06, Final residual = 9.97115e-06, No Iterations 0
smoothSolver:  Solving for By, Initial residual = 5.96504e-06, Final residual = 5.96504e-06, No Iterations 0
DICPCG:  Solving for pB, Initial residual = 5.96637e-06, Final residual = 5.96637e-06, No Iterations 0
magnetic flux divergence error = 2.92603e-10
Time = 1.965

Courant Number mean: 0.0256037 max: 0.0615183
smoothSolver:  Solving for Ux, Initial residual = 2.75381e-08, Final residual = 2.75381e-08, No Iterations 0
smoothSolver:  Solving for Uy, Initial residual = 3.42663e-07, Final residual = 3.42663e-07, No Iterations 0
DICPCG:  Solving for p, Initial residual = 8.58984e-07, Final residual = 8.58984e-07, No Iterations 0
time step continuity errors : sum local = 1.50198e-10, global = 4.51633e-11, cumulative = 8.23729e-07
DICPCG:  Solving for p, Initial residual = 9.39164e-07, Final residual = 9.39164e-07, No Iterations 0
time step continuity errors : sum local = 1.64217e-10, global = 4.54598e-11, cumulative = 8.23774e-07
DICPCG:  Solving for p, Initial residual = 1.00331e-06, Final residual = 8.5213e-07, No Iterations 1
time step continuity errors : sum local = 1.49e-10, global = 4.5454e-11, cumulative = 8.23819e-07
smoothSolver:  Solving for Bx, Initial residual = 9.97122e-06, Final residual = 9.97122e-06, No Iterations 0
smoothSolver:  Solving for By, Initial residual = 6.11364e-05, Final residual = 5.9056e-06, No Iterations 3
DICPCG:  Solving for pB, Initial residual = 0.000148139, Final residual = 9.93674e-06, No Iterations 8
magnetic flux divergence error = 4.87387e-10
smoothSolver:  Solving for Bx, Initial residual = 9.97297e-06, Final residual = 9.97297e-06, No Iterations 0
smoothSolver:  Solving for By, Initial residual = 5.90491e-06, Final residual = 5.90491e-06, No Iterations 0
DICPCG:  Solving for pB, Initial residual = 9.93531e-06, Final residual = 9.93531e-06, No Iterations 0
magnetic flux divergence error = 4.87387e-10
smoothSolver:  Solving for Bx, Initial residual = 9.97297e-06, Final residual = 9.97297e-06, No Iterations 0
smoothSolver:  Solving for By, Initial residual = 5.90491e-06, Final residual = 5.90491e-06, No Iterations 0
DICPCG:  Solving for pB, Initial residual = 9.93531e-06, Final residual = 9.93531e-06, No Iterations 0
magnetic flux divergence error = 4.87387e-10
Time = 1.97

Courant Number mean: 0.0256037 max: 0.0615183
smoothSolver:  Solving for Ux, Initial residual = 2.78176e-08, Final residual = 2.78176e-08, No Iterations 0
smoothSolver:  Solving for Uy, Initial residual = 4.03764e-07, Final residual = 4.03764e-07, No Iterations 0
DICPCG:  Solving for p, Initial residual = 1.0651e-06, Final residual = 8.07709e-07, No Iterations 1
time step continuity errors : sum local = 1.41232e-10, global = 4.54027e-11, cumulative = 8.23865e-07
DICPCG:  Solving for p, Initial residual = 8.46002e-07, Final residual = 8.46002e-07, No Iterations 0
time step continuity errors : sum local = 1.47928e-10, global = 4.53598e-11, cumulative = 8.2391e-07
DICPCG:  Solving for p, Initial residual = 8.78396e-07, Final residual = 8.78396e-07, No Iterations 0
time step continuity errors : sum local = 1.53592e-10, global = 4.53302e-11, cumulative = 8.23956e-07
smoothSolver:  Solving for Bx, Initial residual = 9.97301e-06, Final residual = 9.97301e-06, No Iterations 0
smoothSolver:  Solving for By, Initial residual = 6.05195e-05, Final residual = 5.84602e-06, No Iterations 3
DICPCG:  Solving for pB, Initial residual = 0.0001496, Final residual = 9.35239e-06, No Iterations 8
magnetic flux divergence error = 4.58857e-10
smoothSolver:  Solving for Bx, Initial residual = 9.97489e-06, Final residual = 9.97489e-06, No Iterations 0
smoothSolver:  Solving for By, Initial residual = 5.84533e-06, Final residual = 5.84533e-06, No Iterations 0
DICPCG:  Solving for pB, Initial residual = 9.35106e-06, Final residual = 9.35106e-06, No Iterations 0
magnetic flux divergence error = 4.58857e-10
smoothSolver:  Solving for Bx, Initial residual = 9.97489e-06, Final residual = 9.97489e-06, No Iterations 0
smoothSolver:  Solving for By, Initial residual = 5.84533e-06, Final residual = 5.84533e-06, No Iterations 0
DICPCG:  Solving for pB, Initial residual = 9.35106e-06, Final residual = 9.35106e-06, No Iterations 0
magnetic flux divergence error = 4.58857e-10
Time = 1.975

Courant Number mean: 0.0256037 max: 0.0615183
smoothSolver:  Solving for Ux, Initial residual = 2.5592e-08, Final residual = 2.5592e-08, No Iterations 0
smoothSolver:  Solving for Uy, Initial residual = 2.57614e-07, Final residual = 2.57614e-07, No Iterations 0
DICPCG:  Solving for p, Initial residual = 9.6823e-07, Final residual = 9.6823e-07, No Iterations 0
time step continuity errors : sum local = 1.693e-10, global = 4.52869e-11, cumulative = 8.24001e-07
DICPCG:  Solving for p, Initial residual = 1.01738e-06, Final residual = 8.5436e-07, No Iterations 1
time step continuity errors : sum local = 1.4939e-10, global = 4.50762e-11, cumulative = 8.24046e-07
DICPCG:  Solving for p, Initial residual = 9.26863e-07, Final residual = 9.26863e-07, No Iterations 0
time step continuity errors : sum local = 1.62068e-10, global = 4.49205e-11, cumulative = 8.24091e-07
smoothSolver:  Solving for Bx, Initial residual = 9.97496e-06, Final residual = 9.97496e-06, No Iterations 0
smoothSolver:  Solving for By, Initial residual = 5.99088e-05, Final residual = 5.78702e-06, No Iterations 3
DICPCG:  Solving for pB, Initial residual = 0.000147146, Final residual = 6.27259e-06, No Iterations 9
magnetic flux divergence error = 3.0784e-10
smoothSolver:  Solving for Bx, Initial residual = 9.97712e-06, Final residual = 9.97712e-06, No Iterations 0
smoothSolver:  Solving for By, Initial residual = 5.78634e-06, Final residual = 5.78634e-06, No Iterations 0
DICPCG:  Solving for pB, Initial residual = 6.2717e-06, Final residual = 6.2717e-06, No Iterations 0
magnetic flux divergence error = 3.0784e-10
smoothSolver:  Solving for Bx, Initial residual = 9.97712e-06, Final residual = 9.97712e-06, No Iterations 0
smoothSolver:  Solving for By, Initial residual = 5.78634e-06, Final residual = 5.78634e-06, No Iterations 0
DICPCG:  Solving for pB, Initial residual = 6.2717e-06, Final residual = 6.2717e-06, No Iterations 0
magnetic flux divergence error = 3.0784e-10
Time = 1.98

Courant Number mean: 0.0256037 max: 0.0615183
smoothSolver:  Solving for Ux, Initial residual = 2.64425e-08, Final residual = 2.64425e-08, No Iterations 0
smoothSolver:  Solving for Uy, Initial residual = 3.10281e-07, Final residual = 3.10281e-07, No Iterations 0
DICPCG:  Solving for p, Initial residual = 1.07302e-06, Final residual = 8.56701e-07, No Iterations 1
time step continuity errors : sum local = 1.49798e-10, global = 4.45963e-11, cumulative = 8.24135e-07
DICPCG:  Solving for p, Initial residual = 9.06764e-07, Final residual = 9.06764e-07, No Iterations 0
time step continuity errors : sum local = 1.58552e-10, global = 4.43514e-11, cumulative = 8.2418e-07
DICPCG:  Solving for p, Initial residual = 9.49343e-07, Final residual = 9.49343e-07, No Iterations 0
time step continuity errors : sum local = 1.65998e-10, global = 4.41599e-11, cumulative = 8.24224e-07
smoothSolver:  Solving for Bx, Initial residual = 9.97715e-06, Final residual = 9.97715e-06, No Iterations 0
smoothSolver:  Solving for By, Initial residual = 5.93041e-05, Final residual = 5.72862e-06, No Iterations 3
DICPCG:  Solving for pB, Initial residual = 0.000144104, Final residual = 9.60397e-06, No Iterations 8
magnetic flux divergence error = 4.71467e-10
smoothSolver:  Solving for Bx, Initial residual = 9.97879e-06, Final residual = 9.97879e-06, No Iterations 0
smoothSolver:  Solving for By, Initial residual = 5.72796e-06, Final residual = 5.72796e-06, No Iterations 0
DICPCG:  Solving for pB, Initial residual = 9.60264e-06, Final residual = 9.60264e-06, No Iterations 0
magnetic flux divergence error = 4.71467e-10
smoothSolver:  Solving for Bx, Initial residual = 9.97879e-06, Final residual = 9.97879e-06, No Iterations 0
smoothSolver:  Solving for By, Initial residual = 5.72796e-06, Final residual = 5.72796e-06, No Iterations 0
DICPCG:  Solving for pB, Initial residual = 9.60264e-06, Final residual = 9.60264e-06, No Iterations 0
magnetic flux divergence error = 4.71467e-10
Time = 1.985

Courant Number mean: 0.0256037 max: 0.0615183
smoothSolver:  Solving for Ux, Initial residual = 2.49918e-08, Final residual = 2.49918e-08, No Iterations 0
smoothSolver:  Solving for Uy, Initial residual = 2.54977e-07, Final residual = 2.54977e-07, No Iterations 0
DICPCG:  Solving for p, Initial residual = 1.05542e-06, Final residual = 9.06581e-07, No Iterations 1
time step continuity errors : sum local = 1.58518e-10, global = 4.38011e-11, cumulative = 8.24268e-07
DICPCG:  Solving for p, Initial residual = 9.69697e-07, Final residual = 9.69697e-07, No Iterations 0
time step continuity errors : sum local = 1.69556e-10, global = 4.35268e-11, cumulative = 8.24311e-07
DICPCG:  Solving for p, Initial residual = 1.01808e-06, Final residual = 9.35765e-07, No Iterations 1
time step continuity errors : sum local = 1.63623e-10, global = 4.32848e-11, cumulative = 8.24355e-07
smoothSolver:  Solving for Bx, Initial residual = 9.97884e-06, Final residual = 9.97884e-06, No Iterations 0
smoothSolver:  Solving for By, Initial residual = 5.87054e-05, Final residual = 5.67079e-06, No Iterations 3
DICPCG:  Solving for pB, Initial residual = 0.000145035, Final residual = 9.28434e-06, No Iterations 8
magnetic flux divergence error = 4.55902e-10
smoothSolver:  Solving for Bx, Initial residual = 9.98066e-06, Final residual = 9.98066e-06, No Iterations 0
smoothSolver:  Solving for By, Initial residual = 5.67014e-06, Final residual = 5.67014e-06, No Iterations 0
DICPCG:  Solving for pB, Initial residual = 9.28305e-06, Final residual = 9.28305e-06, No Iterations 0
magnetic flux divergence error = 4.55902e-10
smoothSolver:  Solving for Bx, Initial residual = 9.98066e-06, Final residual = 9.98066e-06, No Iterations 0
smoothSolver:  Solving for By, Initial residual = 5.67014e-06, Final residual = 5.67014e-06, No Iterations 0
DICPCG:  Solving for pB, Initial residual = 9.28305e-06, Final residual = 9.28305e-06, No Iterations 0
magnetic flux divergence error = 4.55902e-10
Time = 1.99

Courant Number mean: 0.0256037 max: 0.0615183
smoothSolver:  Solving for Ux, Initial residual = 2.47491e-08, Final residual = 2.47491e-08, No Iterations 0
smoothSolver:  Solving for Uy, Initial residual = 2.39668e-07, Final residual = 2.39668e-07, No Iterations 0
DICPCG:  Solving for p, Initial residual = 9.93556e-07, Final residual = 9.93556e-07, No Iterations 0
time step continuity errors : sum local = 1.73728e-10, global = 4.29242e-11, cumulative = 8.24398e-07
DICPCG:  Solving for p, Initial residual = 1.04006e-06, Final residual = 9.55827e-07, No Iterations 1
time step continuity errors : sum local = 1.67131e-10, global = 4.26443e-11, cumulative = 8.2444e-07
DICPCG:  Solving for p, Initial residual = 1.0173e-06, Final residual = 9.59711e-07, No Iterations 1
time step continuity errors : sum local = 1.6781e-10, global = 4.24132e-11, cumulative = 8.24483e-07
smoothSolver:  Solving for Bx, Initial residual = 9.9807e-06, Final residual = 9.9807e-06, No Iterations 0
smoothSolver:  Solving for By, Initial residual = 5.81127e-05, Final residual = 5.61353e-06, No Iterations 3
DICPCG:  Solving for pB, Initial residual = 0.000142831, Final residual = 5.94384e-06, No Iterations 9
magnetic flux divergence error = 2.91949e-10
smoothSolver:  Solving for Bx, Initial residual = 9.98279e-06, Final residual = 9.98279e-06, No Iterations 0
smoothSolver:  Solving for By, Initial residual = 5.61289e-06, Final residual = 5.61289e-06, No Iterations 0
DICPCG:  Solving for pB, Initial residual = 5.94302e-06, Final residual = 5.94302e-06, No Iterations 0
magnetic flux divergence error = 2.91949e-10
smoothSolver:  Solving for Bx, Initial residual = 9.98279e-06, Final residual = 9.98279e-06, No Iterations 0
smoothSolver:  Solving for By, Initial residual = 5.61289e-06, Final residual = 5.61289e-06, No Iterations 0
DICPCG:  Solving for pB, Initial residual = 5.94302e-06, Final residual = 5.94302e-06, No Iterations 0
magnetic flux divergence error = 2.91949e-10
Time = 1.995

Courant Number mean: 0.0256037 max: 0.0615183
smoothSolver:  Solving for Ux, Initial residual = 2.45688e-08, Final residual = 2.45688e-08, No Iterations 0
smoothSolver:  Solving for Uy, Initial residual = 2.3945e-07, Final residual = 2.3945e-07, No Iterations 0
DICPCG:  Solving for p, Initial residual = 9.98356e-07, Final residual = 9.98356e-07, No Iterations 0
time step continuity errors : sum local = 1.74568e-10, global = 4.20578e-11, cumulative = 8.24525e-07
DICPCG:  Solving for p, Initial residual = 1.03163e-06, Final residual = 9.65077e-07, No Iterations 1
time step continuity errors : sum local = 1.68749e-10, global = 4.17691e-11, cumulative = 8.24566e-07
DICPCG:  Solving for p, Initial residual = 1.02436e-06, Final residual = 9.66809e-07, No Iterations 1
time step continuity errors : sum local = 1.69051e-10, global = 4.1529e-11, cumulative = 8.24608e-07
smoothSolver:  Solving for Bx, Initial residual = 9.98282e-06, Final residual = 9.98282e-06, No Iterations 0
smoothSolver:  Solving for By, Initial residual = 5.7526e-05, Final residual = 5.55685e-06, No Iterations 3
DICPCG:  Solving for pB, Initial residual = 0.000139622, Final residual = 9.61246e-06, No Iterations 8
magnetic flux divergence error = 4.72273e-10
smoothSolver:  Solving for Bx, Initial residual = 9.9844e-06, Final residual = 9.9844e-06, No Iterations 0
smoothSolver:  Solving for By, Initial residual = 5.55624e-06, Final residual = 5.55624e-06, No Iterations 0
DICPCG:  Solving for pB, Initial residual = 9.61116e-06, Final residual = 9.61116e-06, No Iterations 0
magnetic flux divergence error = 4.72273e-10
smoothSolver:  Solving for Bx, Initial residual = 9.9844e-06, Final residual = 9.9844e-06, No Iterations 0
smoothSolver:  Solving for By, Initial residual = 5.55624e-06, Final residual = 5.55624e-06, No Iterations 0
DICPCG:  Solving for pB, Initial residual = 9.61116e-06, Final residual = 9.61116e-06, No Iterations 0
magnetic flux divergence error = 4.72273e-10
Time = 2

Courant Number mean: 0.0256037 max: 0.0615183
smoothSolver:  Solving for Ux, Initial residual = 2.43746e-08, Final residual = 2.43746e-08, No Iterations 0
smoothSolver:  Solving for Uy, Initial residual = 2.30206e-07, Final residual = 2.30206e-07, No Iterations 0
DICPCG:  Solving for p, Initial residual = 1.00792e-06, Final residual = 9.99583e-07, No Iterations 1
time step continuity errors : sum local = 1.74784e-10, global = 4.11603e-11, cumulative = 8.24649e-07
DICPCG:  Solving for p, Initial residual = 1.05383e-06, Final residual = 9.79666e-07, No Iterations 1
time step continuity errors : sum local = 1.713e-10, global = 4.08669e-11, cumulative = 8.2469e-07
DICPCG:  Solving for p, Initial residual = 1.01641e-06, Final residual = 8.92139e-07, No Iterations 66
time step continuity errors : sum local = 1.55995e-10, global = 2.12074e-12, cumulative = 8.24692e-07
smoothSolver:  Solving for Bx, Initial residual = 9.9797e-06, Final residual = 9.9797e-06, No Iterations 0
smoothSolver:  Solving for By, Initial residual = 5.69393e-05, Final residual = 5.50018e-06, No Iterations 3
DICPCG:  Solving for pB, Initial residual = 0.000140874, Final residual = 8.88348e-06, No Iterations 8
magnetic flux divergence error = 4.36575e-10
smoothSolver:  Solving for Bx, Initial residual = 9.98145e-06, Final residual = 9.98145e-06, No Iterations 0
smoothSolver:  Solving for By, Initial residual = 5.49957e-06, Final residual = 5.49957e-06, No Iterations 0
DICPCG:  Solving for pB, Initial residual = 8.88229e-06, Final residual = 8.88229e-06, No Iterations 0
magnetic flux divergence error = 4.36575e-10
smoothSolver:  Solving for Bx, Initial residual = 9.98145e-06, Final residual = 9.98145e-06, No Iterations 0
smoothSolver:  Solving for By, Initial residual = 5.49957e-06, Final residual = 5.49957e-06, No Iterations 0
DICPCG:  Solving for pB, Initial residual = 8.88229e-06, Final residual = 8.88229e-06, No Iterations 0
magnetic flux divergence error = 4.36575e-10
    functionObjects::components components(U) writing field: Ux
    functionObjects::components components(U) writing field: Uy
    functionObjects::components components(U) writing field: Uz
End

