/*---------------------------------------------------------------------------*\
| =========                 |                                                 |
| \\      /  F ield         | OpenFOAM: The Open Source CFD Toolbox           |
|  \\    /   O peration     | Version:  2012                                  |
|   \\  /    A nd           | Website:  www.openfoam.com                      |
|    \\/     M anipulation  |                                                 |
\*---------------------------------------------------------------------------*/
Build  : _269d0ffd5c-20210619 OPENFOAM=2012 patch=210618
Arch   : "LSB;label=32;scalar=64"
Exec   : mhdPimpleFoam
Date   : Apr 01 2022
Time   : 09:56:06
Host   : gabrielmarconcini-Lenovo-G50-80
PID    : 20716
I/O    : uncollated
Case   : /home/gabrielmarconcini/Documentos/TCC/PTCC/ShockTube/sim/NewSolver/ShockTube1_1000
nProcs : 1
trapFpe: Floating point exception trapping enabled (FOAM_SIGFPE).
fileModificationChecking : Monitoring run-time modified files using timeStampMaster (fileModificationSkew 5, maxFileModificationPolls 20)
allowSystemOperations : Allowing user-supplied system call operations

// * * * * * * * * * * * * * * * * * * * * * * * * * * * * * * * * * * * * * //
Create time

Create mesh for time = 0


PIMPLE: Operating solver in PISO mode

Reading thermophysical properties

Selecting thermodynamics package 
{
    type            hePsiThermo;
    mixture         pureMixture;
    transport       const;
    thermo          eConst;
    equationOfState perfectGas;
    specie          specie;
    energy          sensibleInternalEnergy;
}

Reading field U

Reading/calculating face flux field phi

Creating turbulence model

Selecting turbulence model type laminar
Selecting laminar stress model Stokes
Creating field dpdt

Creating field kinetic energy K

No MRF models present

No finite volume options present
Courant Number mean: 0 max: 0

Starting time loop

Courant Number mean: 0 max: 0
Time = 1e-05

PIMPLE: iteration 1
diagonal:  Solving for rho, Initial residual = 0, Final residual = 0, No Iterations 0
smoothSolver:  Solving for Ux, Initial residual = 1, Final residual = 0, No Iterations 1
smoothSolver:  Solving for e, Initial residual = 2.85024e-17, Final residual = 2.85024e-17, No Iterations 0
smoothSolver:  Solving for p, Initial residual = 0.000178178, Final residual = 6.67182e-17, No Iterations 6
diagonal:  Solving for rho, Initial residual = 0, Final residual = 0, No Iterations 0
time step continuity errors : sum local = 1.28481e-16, global = -8.60413e-17, cumulative = -8.60413e-17
ExecutionTime = 0.07 s  ClockTime = 0 s

Courant Number mean: 0.000282763 max: 0.209968
Time = 2e-05

PIMPLE: iteration 1
diagonal:  Solving for rho, Initial residual = 0, Final residual = 0, No Iterations 0
smoothSolver:  Solving for Ux, Initial residual = 0.0888773, Final residual = 1.47946e-17, No Iterations 1
smoothSolver:  Solving for e, Initial residual = 0.000671148, Final residual = 9.13897e-18, No Iterations 3
smoothSolver:  Solving for p, Initial residual = 0.000412309, Final residual = 9.35693e-17, No Iterations 6
diagonal:  Solving for rho, Initial residual = 0, Final residual = 0, No Iterations 0
time step continuity errors : sum local = 2.10763e-16, global = -9.8877e-17, cumulative = -1.84918e-16
ExecutionTime = 0.07 s  ClockTime = 0 s

Courant Number mean: 0.000585968 max: 0.294219
Time = 3e-05

PIMPLE: iteration 1
diagonal:  Solving for rho, Initial residual = 0, Final residual = 0, No Iterations 0
smoothSolver:  Solving for Ux, Initial residual = 0.0644139, Final residual = 8.53107e-18, No Iterations 1
smoothSolver:  Solving for e, Initial residual = 0.00101365, Final residual = 2.67453e-16, No Iterations 7
smoothSolver:  Solving for p, Initial residual = 0.000481158, Final residual = 8.66159e-17, No Iterations 6
diagonal:  Solving for rho, Initial residual = 0, Final residual = 0, No Iterations 0
time step continuity errors : sum local = 1.9209e-16, global = -1.02216e-16, cumulative = -2.87134e-16
ExecutionTime = 0.08 s  ClockTime = 0 s

Courant Number mean: 0.000747902 max: 0.267195
Time = 4e-05

PIMPLE: iteration 1
diagonal:  Solving for rho, Initial residual = 0, Final residual = 0, No Iterations 0
smoothSolver:  Solving for Ux, Initial residual = 0.0552064, Final residual = 7.04005e-18, No Iterations 1
smoothSolver:  Solving for e, Initial residual = 0.000842193, Final residual = 4.81633e-16, No Iterations 4
smoothSolver:  Solving for p, Initial residual = 0.000416856, Final residual = 7.98311e-17, No Iterations 6
diagonal:  Solving for rho, Initial residual = 0, Final residual = 0, No Iterations 0
time step continuity errors : sum local = 1.71959e-16, global = -8.5151e-17, cumulative = -3.72285e-16
ExecutionTime = 0.08 s  ClockTime = 0 s

Courant Number mean: 0.000903695 max: 0.245371
Time = 5e-05

PIMPLE: iteration 1
diagonal:  Solving for rho, Initial residual = 0, Final residual = 0, No Iterations 0
smoothSolver:  Solving for Ux, Initial residual = 0.0440901, Final residual = 2.1814e-17, No Iterations 1
smoothSolver:  Solving for e, Initial residual = 0.000642778, Final residual = 1.19032e-16, No Iterations 5
smoothSolver:  Solving for p, Initial residual = 0.00036234, Final residual = 7.60817e-17, No Iterations 6
diagonal:  Solving for rho, Initial residual = 0, Final residual = 0, No Iterations 0
time step continuity errors : sum local = 1.68027e-16, global = -6.15323e-17, cumulative = -4.33817e-16
ExecutionTime = 0.08 s  ClockTime = 0 s

Courant Number mean: 0.00107309 max: 0.243753
Time = 6e-05

PIMPLE: iteration 1
diagonal:  Solving for rho, Initial residual = 0, Final residual = 0, No Iterations 0
smoothSolver:  Solving for Ux, Initial residual = 0.0362121, Final residual = 1.24363e-17, No Iterations 1
smoothSolver:  Solving for e, Initial residual = 0.000850205, Final residual = 3.17739e-17, No Iterations 6
smoothSolver:  Solving for p, Initial residual = 0.000340304, Final residual = 7.42715e-17, No Iterations 6
diagonal:  Solving for rho, Initial residual = 0, Final residual = 0, No Iterations 0
time step continuity errors : sum local = 1.63031e-16, global = -5.81193e-17, cumulative = -4.91937e-16
ExecutionTime = 0.08 s  ClockTime = 0 s

Courant Number mean: 0.00124652 max: 0.255429
Time = 7e-05

PIMPLE: iteration 1
diagonal:  Solving for rho, Initial residual = 0, Final residual = 0, No Iterations 0
smoothSolver:  Solving for Ux, Initial residual = 0.0308177, Final residual = 5.54508e-18, No Iterations 1
smoothSolver:  Solving for e, Initial residual = 0.000865683, Final residual = 6.71013e-16, No Iterations 6
smoothSolver:  Solving for p, Initial residual = 0.000362344, Final residual = 7.4299e-17, No Iterations 6
diagonal:  Solving for rho, Initial residual = 0, Final residual = 0, No Iterations 0
time step continuity errors : sum local = 1.59371e-16, global = -6.57861e-17, cumulative = -5.57723e-16
ExecutionTime = 0.08 s  ClockTime = 0 s

Courant Number mean: 0.00142763 max: 0.26284
Time = 8e-05

PIMPLE: iteration 1
diagonal:  Solving for rho, Initial residual = 0, Final residual = 0, No Iterations 0
smoothSolver:  Solving for Ux, Initial residual = 0.0285412, Final residual = 1.34406e-17, No Iterations 1
smoothSolver:  Solving for e, Initial residual = 0.000782198, Final residual = 1.52695e-16, No Iterations 6
smoothSolver:  Solving for p, Initial residual = 0.000352018, Final residual = 7.2066e-17, No Iterations 6
diagonal:  Solving for rho, Initial residual = 0, Final residual = 0, No Iterations 0
time step continuity errors : sum local = 1.57244e-16, global = -5.94548e-17, cumulative = -6.17178e-16
ExecutionTime = 0.09 s  ClockTime = 0 s

Courant Number mean: 0.00161425 max: 0.269256
Time = 9e-05

PIMPLE: iteration 1
diagonal:  Solving for rho, Initial residual = 0, Final residual = 0, No Iterations 0
smoothSolver:  Solving for Ux, Initial residual = 0.026633, Final residual = 6.53669e-18, No Iterations 1
smoothSolver:  Solving for e, Initial residual = 0.000858674, Final residual = 7.39577e-17, No Iterations 6
smoothSolver:  Solving for p, Initial residual = 0.000331067, Final residual = 6.97934e-17, No Iterations 6
diagonal:  Solving for rho, Initial residual = 0, Final residual = 0, No Iterations 0
time step continuity errors : sum local = 1.5618e-16, global = -5.39891e-17, cumulative = -6.71167e-16
ExecutionTime = 0.09 s  ClockTime = 0 s

Courant Number mean: 0.00180311 max: 0.274277
Time = 0.0001

PIMPLE: iteration 1
diagonal:  Solving for rho, Initial residual = 0, Final residual = 0, No Iterations 0
smoothSolver:  Solving for Ux, Initial residual = 0.0237017, Final residual = 1.24574e-17, No Iterations 1
smoothSolver:  Solving for e, Initial residual = 0.000911839, Final residual = 7.42284e-16, No Iterations 6
smoothSolver:  Solving for p, Initial residual = 0.000347911, Final residual = 6.98385e-17, No Iterations 6
diagonal:  Solving for rho, Initial residual = 0, Final residual = 0, No Iterations 0
time step continuity errors : sum local = 1.52792e-16, global = -5.82677e-17, cumulative = -7.29434e-16
ExecutionTime = 0.09 s  ClockTime = 0 s

Courant Number mean: 0.0019947 max: 0.278397
Time = 0.00011

PIMPLE: iteration 1
diagonal:  Solving for rho, Initial residual = 0, Final residual = 0, No Iterations 0
smoothSolver:  Solving for Ux, Initial residual = 0.0216698, Final residual = 1.37721e-17, No Iterations 1
smoothSolver:  Solving for e, Initial residual = 0.000906734, Final residual = 7.40072e-16, No Iterations 6
smoothSolver:  Solving for p, Initial residual = 0.000345748, Final residual = 6.93465e-17, No Iterations 6
diagonal:  Solving for rho, Initial residual = 0, Final residual = 0, No Iterations 0
time step continuity errors : sum local = 1.52866e-16, global = -5.06256e-17, cumulative = -7.8006e-16
ExecutionTime = 0.09 s  ClockTime = 0 s

Courant Number mean: 0.00218906 max: 0.286053
Time = 0.00012

PIMPLE: iteration 1
diagonal:  Solving for rho, Initial residual = 0, Final residual = 0, No Iterations 0
smoothSolver:  Solving for Ux, Initial residual = 0.0200694, Final residual = 1.13428e-17, No Iterations 1
smoothSolver:  Solving for e, Initial residual = 0.00098957, Final residual = 1.09644e-16, No Iterations 7
smoothSolver:  Solving for p, Initial residual = 0.000346429, Final residual = 6.73334e-17, No Iterations 6
diagonal:  Solving for rho, Initial residual = 0, Final residual = 0, No Iterations 0
time step continuity errors : sum local = 1.55686e-16, global = -5.45332e-17, cumulative = -8.34593e-16
ExecutionTime = 0.09 s  ClockTime = 0 s

Courant Number mean: 0.00238467 max: 0.289971
Time = 0.00013

PIMPLE: iteration 1
diagonal:  Solving for rho, Initial residual = 0, Final residual = 0, No Iterations 0
smoothSolver:  Solving for Ux, Initial residual = 0.0182475, Final residual = 1.66964e-17, No Iterations 1
smoothSolver:  Solving for e, Initial residual = 0.000976508, Final residual = 6.63923e-17, No Iterations 7
smoothSolver:  Solving for p, Initial residual = 0.000344413, Final residual = 6.70273e-17, No Iterations 6
diagonal:  Solving for rho, Initial residual = 0, Final residual = 0, No Iterations 0
time step continuity errors : sum local = 1.49404e-16, global = -4.34535e-17, cumulative = -8.78047e-16
ExecutionTime = 0.1 s  ClockTime = 0 s

Courant Number mean: 0.00258109 max: 0.291507
Time = 0.00014

PIMPLE: iteration 1
diagonal:  Solving for rho, Initial residual = 0, Final residual = 0, No Iterations 0
smoothSolver:  Solving for Ux, Initial residual = 0.0175286, Final residual = 1.73663e-17, No Iterations 1
smoothSolver:  Solving for e, Initial residual = 0.000999325, Final residual = 8.76305e-17, No Iterations 7
smoothSolver:  Solving for p, Initial residual = 0.000337456, Final residual = 6.41836e-17, No Iterations 6
diagonal:  Solving for rho, Initial residual = 0, Final residual = 0, No Iterations 0
time step continuity errors : sum local = 1.43246e-16, global = -5.12934e-17, cumulative = -9.2934e-16
ExecutionTime = 0.1 s  ClockTime = 0 s

Courant Number mean: 0.00277823 max: 0.296378
Time = 0.00015

PIMPLE: iteration 1
diagonal:  Solving for rho, Initial residual = 0, Final residual = 0, No Iterations 0
smoothSolver:  Solving for Ux, Initial residual = 0.0163031, Final residual = 1.4184e-17, No Iterations 1
smoothSolver:  Solving for e, Initial residual = 0.00101844, Final residual = 2.42781e-16, No Iterations 7
smoothSolver:  Solving for p, Initial residual = 0.000352636, Final residual = 6.72699e-17, No Iterations 6
diagonal:  Solving for rho, Initial residual = 0, Final residual = 0, No Iterations 0
time step continuity errors : sum local = 1.50665e-16, global = -5.13923e-17, cumulative = -9.80732e-16
ExecutionTime = 0.1 s  ClockTime = 0 s

Courant Number mean: 0.00297587 max: 0.299309
Time = 0.00016

PIMPLE: iteration 1
diagonal:  Solving for rho, Initial residual = 0, Final residual = 0, No Iterations 0
smoothSolver:  Solving for Ux, Initial residual = 0.015327, Final residual = 1.6729e-17, No Iterations 1
smoothSolver:  Solving for e, Initial residual = 0.00101876, Final residual = 1.75795e-16, No Iterations 7
smoothSolver:  Solving for p, Initial residual = 0.000351033, Final residual = 6.76792e-17, No Iterations 6
diagonal:  Solving for rho, Initial residual = 0, Final residual = 0, No Iterations 0
time step continuity errors : sum local = 1.3595e-16, global = -4.009e-17, cumulative = -1.02082e-15
ExecutionTime = 0.1 s  ClockTime = 0 s

Courant Number mean: 0.0031739 max: 0.30006
Time = 0.00017

PIMPLE: iteration 1
diagonal:  Solving for rho, Initial residual = 0, Final residual = 0, No Iterations 0
smoothSolver:  Solving for Ux, Initial residual = 0.0145175, Final residual = 1.34021e-17, No Iterations 1
smoothSolver:  Solving for e, Initial residual = 0.00104716, Final residual = 4.00603e-16, No Iterations 7
smoothSolver:  Solving for p, Initial residual = 0.000357833, Final residual = 6.82206e-17, No Iterations 6
diagonal:  Solving for rho, Initial residual = 0, Final residual = 0, No Iterations 0
time step continuity errors : sum local = 1.39387e-16, global = -5.02052e-17, cumulative = -1.07103e-15
ExecutionTime = 0.1 s  ClockTime = 0 s

Courant Number mean: 0.00337262 max: 0.302787
Time = 0.00018

PIMPLE: iteration 1
diagonal:  Solving for rho, Initial residual = 0, Final residual = 0, No Iterations 0
smoothSolver:  Solving for Ux, Initial residual = 0.0136668, Final residual = 1.08232e-17, No Iterations 1
smoothSolver:  Solving for e, Initial residual = 0.00104428, Final residual = 4.23405e-16, No Iterations 7
smoothSolver:  Solving for p, Initial residual = 0.000357819, Final residual = 6.59483e-17, No Iterations 6
diagonal:  Solving for rho, Initial residual = 0, Final residual = 0, No Iterations 0
time step continuity errors : sum local = 1.42776e-16, global = -3.95953e-17, cumulative = -1.11062e-15
ExecutionTime = 0.1 s  ClockTime = 0 s

Courant Number mean: 0.00357149 max: 0.303972
Time = 0.00019

PIMPLE: iteration 1
diagonal:  Solving for rho, Initial residual = 0, Final residual = 0, No Iterations 0
smoothSolver:  Solving for Ux, Initial residual = 0.0131948, Final residual = 1.33627e-17, No Iterations 1
smoothSolver:  Solving for e, Initial residual = 0.0010714, Final residual = 6.25886e-16, No Iterations 7
smoothSolver:  Solving for p, Initial residual = 0.000358187, Final residual = 6.56174e-17, No Iterations 6
diagonal:  Solving for rho, Initial residual = 0, Final residual = 0, No Iterations 0
time step continuity errors : sum local = 1.49898e-16, global = -4.50857e-17, cumulative = -1.15571e-15
ExecutionTime = 0.11 s  ClockTime = 0 s

Courant Number mean: 0.00377038 max: 0.305222
Time = 0.0002

PIMPLE: iteration 1
diagonal:  Solving for rho, Initial residual = 0, Final residual = 0, No Iterations 0
smoothSolver:  Solving for Ux, Initial residual = 0.0123175, Final residual = 1.35212e-17, No Iterations 1
smoothSolver:  Solving for e, Initial residual = 0.0010835, Final residual = 6.57391e-16, No Iterations 7
smoothSolver:  Solving for p, Initial residual = 0.000360118, Final residual = 6.38937e-17, No Iterations 6
diagonal:  Solving for rho, Initial residual = 0, Final residual = 0, No Iterations 0
time step continuity errors : sum local = 1.42108e-16, global = -4.85729e-17, cumulative = -1.20428e-15
ExecutionTime = 0.11 s  ClockTime = 0 s

Courant Number mean: 0.00396932 max: 0.306966
Time = 0.00021

PIMPLE: iteration 1
diagonal:  Solving for rho, Initial residual = 0, Final residual = 0, No Iterations 0
smoothSolver:  Solving for Ux, Initial residual = 0.0121066, Final residual = 1.98173e-17, No Iterations 1
smoothSolver:  Solving for e, Initial residual = 0.00109742, Final residual = 6.54948e-16, No Iterations 7
smoothSolver:  Solving for p, Initial residual = 0.000362061, Final residual = 6.6986e-17, No Iterations 6
diagonal:  Solving for rho, Initial residual = 0, Final residual = 0, No Iterations 0
time step continuity errors : sum local = 1.5435e-16, global = -5.06256e-17, cumulative = -1.25491e-15
ExecutionTime = 0.11 s  ClockTime = 0 s

Courant Number mean: 0.00416818 max: 0.30668
Time = 0.00022

PIMPLE: iteration 1
diagonal:  Solving for rho, Initial residual = 0, Final residual = 0, No Iterations 0
smoothSolver:  Solving for Ux, Initial residual = 0.0114191, Final residual = 1.48722e-17, No Iterations 1
smoothSolver:  Solving for e, Initial residual = 0.00111797, Final residual = 8.93277e-16, No Iterations 7
smoothSolver:  Solving for p, Initial residual = 0.000369803, Final residual = 6.20105e-17, No Iterations 6
diagonal:  Solving for rho, Initial residual = 0, Final residual = 0, No Iterations 0
time step continuity errors : sum local = 1.44556e-16, global = -4.44427e-17, cumulative = -1.29935e-15
ExecutionTime = 0.11 s  ClockTime = 0 s

Courant Number mean: 0.0043666 max: 0.309232
Time = 0.00023

PIMPLE: iteration 1
diagonal:  Solving for rho, Initial residual = 0, Final residual = 0, No Iterations 0
smoothSolver:  Solving for Ux, Initial residual = 0.0112221, Final residual = 1.71354e-17, No Iterations 1
smoothSolver:  Solving for e, Initial residual = 0.00111247, Final residual = 8.27193e-16, No Iterations 7
smoothSolver:  Solving for p, Initial residual = 0.000364694, Final residual = 6.43364e-17, No Iterations 6
diagonal:  Solving for rho, Initial residual = 0, Final residual = 0, No Iterations 0
time step continuity errors : sum local = 1.45397e-16, global = -4.42943e-17, cumulative = -1.34364e-15
ExecutionTime = 0.12 s  ClockTime = 0 s

Courant Number mean: 0.00456501 max: 0.308889
Time = 0.00024

PIMPLE: iteration 1
diagonal:  Solving for rho, Initial residual = 0, Final residual = 0, No Iterations 0
smoothSolver:  Solving for Ux, Initial residual = 0.010725, Final residual = 1.73894e-17, No Iterations 1
smoothSolver:  Solving for e, Initial residual = 0.00112913, Final residual = 5.15491e-17, No Iterations 8
smoothSolver:  Solving for p, Initial residual = 0.000373731, Final residual = 6.50828e-17, No Iterations 6
diagonal:  Solving for rho, Initial residual = 0, Final residual = 0, No Iterations 0
time step continuity errors : sum local = 1.55166e-16, global = -4.74352e-17, cumulative = -1.39108e-15
ExecutionTime = 0.12 s  ClockTime = 0 s

Courant Number mean: 0.0047631 max: 0.310866
Time = 0.00025

PIMPLE: iteration 1
diagonal:  Solving for rho, Initial residual = 0, Final residual = 0, No Iterations 0
smoothSolver:  Solving for Ux, Initial residual = 0.0104639, Final residual = 1.55899e-17, No Iterations 1
smoothSolver:  Solving for e, Initial residual = 0.00113267, Final residual = 9.95923e-16, No Iterations 7
smoothSolver:  Solving for p, Initial residual = 0.000370905, Final residual = 6.51524e-17, No Iterations 6
diagonal:  Solving for rho, Initial residual = 0, Final residual = 0, No Iterations 0
time step continuity errors : sum local = 1.51036e-16, global = -4.89439e-17, cumulative = -1.44002e-15
ExecutionTime = 0.12 s  ClockTime = 0 s

Courant Number mean: 0.00496124 max: 0.310871
Time = 0.00026

PIMPLE: iteration 1
diagonal:  Solving for rho, Initial residual = 0, Final residual = 0, No Iterations 0
smoothSolver:  Solving for Ux, Initial residual = 0.0101521, Final residual = 1.76633e-17, No Iterations 1
smoothSolver:  Solving for e, Initial residual = 0.00114216, Final residual = 8.99542e-16, No Iterations 7
smoothSolver:  Solving for p, Initial residual = 0.00037501, Final residual = 6.39346e-17, No Iterations 6
diagonal:  Solving for rho, Initial residual = 0, Final residual = 0, No Iterations 0
time step continuity errors : sum local = 1.45669e-16, global = -4.60503e-17, cumulative = -1.48607e-15
ExecutionTime = 0.12 s  ClockTime = 0 s

Courant Number mean: 0.00515877 max: 0.312296
Time = 0.00027

PIMPLE: iteration 1
diagonal:  Solving for rho, Initial residual = 0, Final residual = 0, No Iterations 0
smoothSolver:  Solving for Ux, Initial residual = 0.00983181, Final residual = 1.69116e-17, No Iterations 1
smoothSolver:  Solving for e, Initial residual = 0.00115908, Final residual = 5.60935e-17, No Iterations 8
smoothSolver:  Solving for p, Initial residual = 0.000377881, Final residual = 6.42918e-17, No Iterations 6
diagonal:  Solving for rho, Initial residual = 0, Final residual = 0, No Iterations 0
time step continuity errors : sum local = 1.54944e-16, global = -4.03867e-17, cumulative = -1.52646e-15
ExecutionTime = 0.12 s  ClockTime = 0 s

Courant Number mean: 0.0053563 max: 0.312896
Time = 0.00028

PIMPLE: iteration 1
diagonal:  Solving for rho, Initial residual = 0, Final residual = 0, No Iterations 0
smoothSolver:  Solving for Ux, Initial residual = 0.00964276, Final residual = 1.24731e-17, No Iterations 1
smoothSolver:  Solving for e, Initial residual = 0.00115424, Final residual = 5.51331e-17, No Iterations 8
smoothSolver:  Solving for p, Initial residual = 0.000380367, Final residual = 6.5405e-17, No Iterations 6
diagonal:  Solving for rho, Initial residual = 0, Final residual = 0, No Iterations 0
time step continuity errors : sum local = 1.45348e-16, global = -3.9348e-17, cumulative = -1.56581e-15
ExecutionTime = 0.13 s  ClockTime = 0 s

Courant Number mean: 0.00555339 max: 0.313475
Time = 0.00029

PIMPLE: iteration 1
diagonal:  Solving for rho, Initial residual = 0, Final residual = 0, No Iterations 0
smoothSolver:  Solving for Ux, Initial residual = 0.0093337, Final residual = 1.40611e-17, No Iterations 1
smoothSolver:  Solving for e, Initial residual = 0.00117541, Final residual = 6.08999e-17, No Iterations 8
smoothSolver:  Solving for p, Initial residual = 0.000382348, Final residual = 6.17956e-17, No Iterations 6
diagonal:  Solving for rho, Initial residual = 0, Final residual = 0, No Iterations 0
time step continuity errors : sum local = 1.44927e-16, global = -3.59598e-17, cumulative = -1.60177e-15
ExecutionTime = 0.13 s  ClockTime = 0 s

Courant Number mean: 0.00575057 max: 0.314238
Time = 0.0003

PIMPLE: iteration 1
diagonal:  Solving for rho, Initial residual = 0, Final residual = 0, No Iterations 0
smoothSolver:  Solving for Ux, Initial residual = 0.00919416, Final residual = 1.58129e-17, No Iterations 1
smoothSolver:  Solving for e, Initial residual = 0.00116459, Final residual = 5.8238e-17, No Iterations 8
smoothSolver:  Solving for p, Initial residual = 0.000384915, Final residual = 6.58893e-17, No Iterations 6
diagonal:  Solving for rho, Initial residual = 0, Final residual = 0, No Iterations 0
time step continuity errors : sum local = 1.42479e-16, global = -3.61824e-17, cumulative = -1.63795e-15
ExecutionTime = 0.13 s  ClockTime = 0 s

Courant Number mean: 0.00594743 max: 0.314599
Time = 0.00031

PIMPLE: iteration 1
diagonal:  Solving for rho, Initial residual = 0, Final residual = 0, No Iterations 0
smoothSolver:  Solving for Ux, Initial residual = 0.00887955, Final residual = 1.35957e-17, No Iterations 1
smoothSolver:  Solving for e, Initial residual = 0.0011827, Final residual = 6.54106e-17, No Iterations 8
smoothSolver:  Solving for p, Initial residual = 0.0003869, Final residual = 6.34481e-17, No Iterations 6
diagonal:  Solving for rho, Initial residual = 0, Final residual = 0, No Iterations 0
time step continuity errors : sum local = 1.43443e-16, global = -4.20932e-17, cumulative = -1.68004e-15
ExecutionTime = 0.13 s  ClockTime = 0 s

Courant Number mean: 0.00614421 max: 0.315551
Time = 0.00032

PIMPLE: iteration 1
diagonal:  Solving for rho, Initial residual = 0, Final residual = 0, No Iterations 0
smoothSolver:  Solving for Ux, Initial residual = 0.00877135, Final residual = 1.70488e-17, No Iterations 1
smoothSolver:  Solving for e, Initial residual = 0.0011846, Final residual = 6.0798e-17, No Iterations 8
smoothSolver:  Solving for p, Initial residual = 0.000390292, Final residual = 6.04341e-17, No Iterations 6
diagonal:  Solving for rho, Initial residual = 0, Final residual = 0, No Iterations 0
time step continuity errors : sum local = 1.4191e-16, global = -4.02136e-17, cumulative = -1.72026e-15
ExecutionTime = 0.14 s  ClockTime = 0 s

Courant Number mean: 0.00634078 max: 0.315548
Time = 0.00033

PIMPLE: iteration 1
diagonal:  Solving for rho, Initial residual = 0, Final residual = 0, No Iterations 0
smoothSolver:  Solving for Ux, Initial residual = 0.0084872, Final residual = 1.77944e-17, No Iterations 1
smoothSolver:  Solving for e, Initial residual = 0.00119213, Final residual = 6.84228e-17, No Iterations 8
smoothSolver:  Solving for p, Initial residual = 0.000391385, Final residual = 6.33631e-17, No Iterations 6
diagonal:  Solving for rho, Initial residual = 0, Final residual = 0, No Iterations 0
time step continuity errors : sum local = 1.45645e-16, global = -3.49952e-17, cumulative = -1.75525e-15
ExecutionTime = 0.14 s  ClockTime = 0 s

Courant Number mean: 0.00653712 max: 0.316676
Time = 0.00034

PIMPLE: iteration 1
diagonal:  Solving for rho, Initial residual = 0, Final residual = 0, No Iterations 0
smoothSolver:  Solving for Ux, Initial residual = 0.00839169, Final residual = 1.43989e-17, No Iterations 1
smoothSolver:  Solving for e, Initial residual = 0.00120184, Final residual = 6.39028e-17, No Iterations 8
smoothSolver:  Solving for p, Initial residual = 0.000394854, Final residual = 6.20566e-17, No Iterations 6
diagonal:  Solving for rho, Initial residual = 0, Final residual = 0, No Iterations 0
time step continuity errors : sum local = 1.37829e-16, global = -4.04857e-17, cumulative = -1.79574e-15
ExecutionTime = 0.14 s  ClockTime = 0 s

Courant Number mean: 0.00673342 max: 0.31632
Time = 0.00035

PIMPLE: iteration 1
diagonal:  Solving for rho, Initial residual = 0, Final residual = 0, No Iterations 0
smoothSolver:  Solving for Ux, Initial residual = 0.00811766, Final residual = 1.50892e-17, No Iterations 1
smoothSolver:  Solving for e, Initial residual = 0.00119857, Final residual = 5.79415e-17, No Iterations 8
smoothSolver:  Solving for p, Initial residual = 0.000395021, Final residual = 6.14436e-17, No Iterations 6
diagonal:  Solving for rho, Initial residual = 0, Final residual = 0, No Iterations 0
time step continuity errors : sum local = 1.41242e-16, global = -3.83093e-17, cumulative = -1.83405e-15
ExecutionTime = 0.14 s  ClockTime = 0 s

Courant Number mean: 0.00692929 max: 0.317622
Time = 0.00036

PIMPLE: iteration 1
diagonal:  Solving for rho, Initial residual = 0, Final residual = 0, No Iterations 0
smoothSolver:  Solving for Ux, Initial residual = 0.00808134, Final residual = 1.27861e-17, No Iterations 1
smoothSolver:  Solving for e, Initial residual = 0.00121888, Final residual = 6.60275e-17, No Iterations 8
smoothSolver:  Solving for p, Initial residual = 0.000398913, Final residual = 6.46203e-17, No Iterations 6
diagonal:  Solving for rho, Initial residual = 0, Final residual = 0, No Iterations 0
time step continuity errors : sum local = 1.43344e-16, global = -4.61987e-17, cumulative = -1.88025e-15
ExecutionTime = 0.14 s  ClockTime = 0 s

Courant Number mean: 0.0071251 max: 0.317116
Time = 0.00037

PIMPLE: iteration 1
diagonal:  Solving for rho, Initial residual = 0, Final residual = 0, No Iterations 0
smoothSolver:  Solving for Ux, Initial residual = 0.00777824, Final residual = 1.52806e-17, No Iterations 1
smoothSolver:  Solving for e, Initial residual = 0.001209, Final residual = 5.88003e-17, No Iterations 8
smoothSolver:  Solving for p, Initial residual = 0.000399987, Final residual = 6.10231e-17, No Iterations 6
diagonal:  Solving for rho, Initial residual = 0, Final residual = 0, No Iterations 0
time step continuity errors : sum local = 1.39981e-16, global = -4.80783e-17, cumulative = -1.92832e-15
ExecutionTime = 0.15 s  ClockTime = 0 s

Courant Number mean: 0.00732055 max: 0.318387
Time = 0.00038

PIMPLE: iteration 1
diagonal:  Solving for rho, Initial residual = 0, Final residual = 0, No Iterations 0
smoothSolver:  Solving for Ux, Initial residual = 0.00778394, Final residual = 1.50357e-17, No Iterations 1
smoothSolver:  Solving for e, Initial residual = 0.0012336, Final residual = 6.88433e-17, No Iterations 8
smoothSolver:  Solving for p, Initial residual = 0.000403276, Final residual = 6.19096e-17, No Iterations 6
diagonal:  Solving for rho, Initial residual = 0, Final residual = 0, No Iterations 0
time step continuity errors : sum local = 1.40896e-16, global = -3.95459e-17, cumulative = -1.96787e-15
ExecutionTime = 0.15 s  ClockTime = 0 s

Courant Number mean: 0.00751611 max: 0.317697
Time = 0.00039

PIMPLE: iteration 1
diagonal:  Solving for rho, Initial residual = 0, Final residual = 0, No Iterations 0
smoothSolver:  Solving for Ux, Initial residual = 0.00751576, Final residual = 1.29792e-17, No Iterations 1
smoothSolver:  Solving for e, Initial residual = 0.00122155, Final residual = 6.08394e-17, No Iterations 8
smoothSolver:  Solving for p, Initial residual = 0.000405475, Final residual = 6.37293e-17, No Iterations 6
diagonal:  Solving for rho, Initial residual = 0, Final residual = 0, No Iterations 0
time step continuity errors : sum local = 1.44284e-16, global = -3.93727e-17, cumulative = -2.00724e-15
ExecutionTime = 0.15 s  ClockTime = 0 s

Courant Number mean: 0.00771111 max: 0.319064
Time = 0.0004

PIMPLE: iteration 1
diagonal:  Solving for rho, Initial residual = 0, Final residual = 0, No Iterations 0
smoothSolver:  Solving for Ux, Initial residual = 0.00751379, Final residual = 1.32771e-17, No Iterations 1
smoothSolver:  Solving for e, Initial residual = 0.00124761, Final residual = 7.01041e-17, No Iterations 8
smoothSolver:  Solving for p, Initial residual = 0.000408018, Final residual = 6.3024e-17, No Iterations 6
diagonal:  Solving for rho, Initial residual = 0, Final residual = 0, No Iterations 0
time step continuity errors : sum local = 1.4656e-16, global = -4.12029e-17, cumulative = -2.04845e-15
ExecutionTime = 0.15 s  ClockTime = 0 s

Courant Number mean: 0.00790641 max: 0.318209
Time = 0.00041

PIMPLE: iteration 1
diagonal:  Solving for rho, Initial residual = 0, Final residual = 0, No Iterations 0
smoothSolver:  Solving for Ux, Initial residual = 0.00727253, Final residual = 1.90717e-17, No Iterations 1
smoothSolver:  Solving for e, Initial residual = 0.00123282, Final residual = 6.33484e-17, No Iterations 8
smoothSolver:  Solving for p, Initial residual = 0.000410933, Final residual = 6.37593e-17, No Iterations 6
diagonal:  Solving for rho, Initial residual = 0, Final residual = 0, No Iterations 0
time step continuity errors : sum local = 1.35059e-16, global = -3.75673e-17, cumulative = -2.08601e-15
ExecutionTime = 0.15 s  ClockTime = 0 s

Courant Number mean: 0.00810094 max: 0.319668
Time = 0.00042

PIMPLE: iteration 1
diagonal:  Solving for rho, Initial residual = 0, Final residual = 0, No Iterations 0
smoothSolver:  Solving for Ux, Initial residual = 0.00727153, Final residual = 1.55464e-17, No Iterations 1
smoothSolver:  Solving for e, Initial residual = 0.00126107, Final residual = 7.05222e-17, No Iterations 8
smoothSolver:  Solving for p, Initial residual = 0.000413111, Final residual = 6.45528e-17, No Iterations 6
diagonal:  Solving for rho, Initial residual = 0, Final residual = 0, No Iterations 0
time step continuity errors : sum local = 1.40995e-16, global = -4.59761e-17, cumulative = -2.13199e-15
ExecutionTime = 0.16 s  ClockTime = 0 s

Courant Number mean: 0.00829603 max: 0.318891
Time = 0.00043

PIMPLE: iteration 1
diagonal:  Solving for rho, Initial residual = 0, Final residual = 0, No Iterations 0
smoothSolver:  Solving for Ux, Initial residual = 0.00704629, Final residual = 1.89995e-17, No Iterations 1
smoothSolver:  Solving for e, Initial residual = 0.0012449, Final residual = 6.4255e-17, No Iterations 8
smoothSolver:  Solving for p, Initial residual = 0.000416654, Final residual = 6.23754e-17, No Iterations 6
diagonal:  Solving for rho, Initial residual = 0, Final residual = 0, No Iterations 0
time step continuity errors : sum local = 1.43443e-16, global = -4.76826e-17, cumulative = -2.17967e-15
ExecutionTime = 0.16 s  ClockTime = 0 s

Courant Number mean: 0.00849031 max: 0.320293
Time = 0.00044

PIMPLE: iteration 1
diagonal:  Solving for rho, Initial residual = 0, Final residual = 0, No Iterations 0
smoothSolver:  Solving for Ux, Initial residual = 0.00704849, Final residual = 1.75552e-17, No Iterations 1
smoothSolver:  Solving for e, Initial residual = 0.00127203, Final residual = 7.19424e-17, No Iterations 8
smoothSolver:  Solving for p, Initial residual = 0.000418053, Final residual = 6.2734e-17, No Iterations 6
diagonal:  Solving for rho, Initial residual = 0, Final residual = 0, No Iterations 0
time step continuity errors : sum local = 1.44037e-16, global = -3.67017e-17, cumulative = -2.21637e-15
ExecutionTime = 0.16 s  ClockTime = 0 s

Courant Number mean: 0.00868515 max: 0.319363
Time = 0.00045

PIMPLE: iteration 1
diagonal:  Solving for rho, Initial residual = 0, Final residual = 0, No Iterations 0
smoothSolver:  Solving for Ux, Initial residual = 0.00684297, Final residual = 1.38335e-17, No Iterations 1
smoothSolver:  Solving for e, Initial residual = 0.00125971, Final residual = 6.48107e-17, No Iterations 8
smoothSolver:  Solving for p, Initial residual = 0.000421826, Final residual = 6.2434e-17, No Iterations 6
diagonal:  Solving for rho, Initial residual = 0, Final residual = 0, No Iterations 0
time step continuity errors : sum local = 1.41341e-16, global = -4.30577e-17, cumulative = -2.25943e-15
ExecutionTime = 0.16 s  ClockTime = 0 s

Courant Number mean: 0.0088792 max: 0.320736
Time = 0.00046

PIMPLE: iteration 1
diagonal:  Solving for rho, Initial residual = 0, Final residual = 0, No Iterations 0
smoothSolver:  Solving for Ux, Initial residual = 0.0068403, Final residual = 1.37546e-17, No Iterations 1
smoothSolver:  Solving for e, Initial residual = 0.00128205, Final residual = 7.27831e-17, No Iterations 8
smoothSolver:  Solving for p, Initial residual = 0.000422965, Final residual = 6.1241e-17, No Iterations 6
diagonal:  Solving for rho, Initial residual = 0, Final residual = 0, No Iterations 0
time step continuity errors : sum local = 1.36741e-16, global = -3.38576e-17, cumulative = -2.29329e-15
ExecutionTime = 0.16 s  ClockTime = 0 s

Courant Number mean: 0.0090738 max: 0.319792
Time = 0.00047

PIMPLE: iteration 1
diagonal:  Solving for rho, Initial residual = 0, Final residual = 0, No Iterations 0
smoothSolver:  Solving for Ux, Initial residual = 0.00665632, Final residual = 1.6981e-17, No Iterations 1
smoothSolver:  Solving for e, Initial residual = 0.00127447, Final residual = 6.63914e-17, No Iterations 8
smoothSolver:  Solving for p, Initial residual = 0.000427498, Final residual = 6.23796e-17, No Iterations 6
diagonal:  Solving for rho, Initial residual = 0, Final residual = 0, No Iterations 0
time step continuity errors : sum local = 1.37359e-16, global = -3.96695e-17, cumulative = -2.33296e-15
ExecutionTime = 0.17 s  ClockTime = 0 s

Courant Number mean: 0.00926768 max: 0.321128
Time = 0.00048

PIMPLE: iteration 1
diagonal:  Solving for rho, Initial residual = 0, Final residual = 0, No Iterations 0
smoothSolver:  Solving for Ux, Initial residual = 0.00664536, Final residual = 1.41426e-17, No Iterations 1
smoothSolver:  Solving for e, Initial residual = 0.00129183, Final residual = 7.38306e-17, No Iterations 8
smoothSolver:  Solving for p, Initial residual = 0.000427614, Final residual = 6.31767e-17, No Iterations 6
diagonal:  Solving for rho, Initial residual = 0, Final residual = 0, No Iterations 0
time step continuity errors : sum local = 1.42281e-16, global = -4.39976e-17, cumulative = -2.37696e-15
ExecutionTime = 0.17 s  ClockTime = 0 s

Courant Number mean: 0.00946205 max: 0.320156
Time = 0.00049

PIMPLE: iteration 1
diagonal:  Solving for rho, Initial residual = 0, Final residual = 0, No Iterations 0
smoothSolver:  Solving for Ux, Initial residual = 0.00648249, Final residual = 1.70046e-17, No Iterations 1
smoothSolver:  Solving for e, Initial residual = 0.00128723, Final residual = 6.86572e-17, No Iterations 8
smoothSolver:  Solving for p, Initial residual = 0.000432892, Final residual = 6.09109e-17, No Iterations 6
diagonal:  Solving for rho, Initial residual = 0, Final residual = 0, No Iterations 0
time step continuity errors : sum local = 1.40995e-16, global = -3.8705e-17, cumulative = -2.41566e-15
ExecutionTime = 0.17 s  ClockTime = 0 s

Courant Number mean: 0.00965585 max: 0.321443
Time = 0.0005

PIMPLE: iteration 1
diagonal:  Solving for rho, Initial residual = 0, Final residual = 0, No Iterations 0
smoothSolver:  Solving for Ux, Initial residual = 0.00646282, Final residual = 1.55848e-17, No Iterations 1
smoothSolver:  Solving for e, Initial residual = 0.00129941, Final residual = 5.7255e-17, No Iterations 8
smoothSolver:  Solving for p, Initial residual = 0.000431597, Final residual = 6.43444e-17, No Iterations 6
diagonal:  Solving for rho, Initial residual = 0, Final residual = 0, No Iterations 0
time step continuity errors : sum local = 1.45323e-16, global = -4.06093e-17, cumulative = -2.45627e-15
ExecutionTime = 0.17 s  ClockTime = 0 s

Courant Number mean: 0.00984995 max: 0.32063
Time = 0.00051

PIMPLE: iteration 1
diagonal:  Solving for rho, Initial residual = 0, Final residual = 0, No Iterations 0
smoothSolver:  Solving for Ux, Initial residual = 0.00632109, Final residual = 1.71174e-17, No Iterations 1
smoothSolver:  Solving for e, Initial residual = 0.00129977, Final residual = 7.06274e-17, No Iterations 8
smoothSolver:  Solving for p, Initial residual = 0.000437635, Final residual = 6.1927e-17, No Iterations 6
diagonal:  Solving for rho, Initial residual = 0, Final residual = 0, No Iterations 0
time step continuity errors : sum local = 1.44779e-16, global = -4.11534e-17, cumulative = -2.49742e-15
ExecutionTime = 0.18 s  ClockTime = 0 s

Courant Number mean: 0.0100435 max: 0.32179
Time = 0.00052

PIMPLE: iteration 1
diagonal:  Solving for rho, Initial residual = 0, Final residual = 0, No Iterations 0
smoothSolver:  Solving for Ux, Initial residual = 0.00629626, Final residual = 1.40809e-17, No Iterations 1
smoothSolver:  Solving for e, Initial residual = 0.0013044, Final residual = 5.80411e-17, No Iterations 8
smoothSolver:  Solving for p, Initial residual = 0.000435435, Final residual = 6.0748e-17, No Iterations 6
diagonal:  Solving for rho, Initial residual = 0, Final residual = 0, No Iterations 0
time step continuity errors : sum local = 1.4374e-16, global = -4.3676e-17, cumulative = -2.5411e-15
ExecutionTime = 0.18 s  ClockTime = 0 s

Courant Number mean: 0.0102375 max: 0.320726
Time = 0.00053

PIMPLE: iteration 1
diagonal:  Solving for rho, Initial residual = 0, Final residual = 0, No Iterations 0
smoothSolver:  Solving for Ux, Initial residual = 0.00617085, Final residual = 1.55393e-17, No Iterations 1
smoothSolver:  Solving for e, Initial residual = 0.00130817, Final residual = 7.0534e-17, No Iterations 8
smoothSolver:  Solving for p, Initial residual = 0.000442411, Final residual = 6.13744e-17, No Iterations 6
diagonal:  Solving for rho, Initial residual = 0, Final residual = 0, No Iterations 0
time step continuity errors : sum local = 1.43443e-16, global = -4.92654e-17, cumulative = -2.59037e-15
ExecutionTime = 0.18 s  ClockTime = 0 s

Courant Number mean: 0.010431 max: 0.321902
Time = 0.00054

PIMPLE: iteration 1
diagonal:  Solving for rho, Initial residual = 0, Final residual = 0, No Iterations 0
smoothSolver:  Solving for Ux, Initial residual = 0.0061397, Final residual = 1.65823e-17, No Iterations 1
smoothSolver:  Solving for e, Initial residual = 0.00131035, Final residual = 5.78975e-17, No Iterations 8
smoothSolver:  Solving for p, Initial residual = 0.000439554, Final residual = 6.23723e-17, No Iterations 6
diagonal:  Solving for rho, Initial residual = 0, Final residual = 0, No Iterations 0
time step continuity errors : sum local = 1.45175e-16, global = -3.3635e-17, cumulative = -2.624e-15
ExecutionTime = 0.18 s  ClockTime = 0 s

Courant Number mean: 0.0106248 max: 0.320793
Time = 0.00055

PIMPLE: iteration 1
diagonal:  Solving for rho, Initial residual = 0, Final residual = 0, No Iterations 0
smoothSolver:  Solving for Ux, Initial residual = 0.00602948, Final residual = 1.45681e-17, No Iterations 1
smoothSolver:  Solving for e, Initial residual = 0.00131581, Final residual = 7.03025e-17, No Iterations 8
smoothSolver:  Solving for p, Initial residual = 0.000447078, Final residual = 6.10785e-17, No Iterations 6
diagonal:  Solving for rho, Initial residual = 0, Final residual = 0, No Iterations 0
time step continuity errors : sum local = 1.42924e-16, global = -3.58361e-17, cumulative = -2.65984e-15
ExecutionTime = 0.18 s  ClockTime = 0 s

Courant Number mean: 0.0108183 max: 0.321946
Time = 0.00056

PIMPLE: iteration 1
diagonal:  Solving for rho, Initial residual = 0, Final residual = 0, No Iterations 0
smoothSolver:  Solving for Ux, Initial residual = 0.00599341, Final residual = 1.48468e-17, No Iterations 1
smoothSolver:  Solving for e, Initial residual = 0.00131546, Final residual = 5.97408e-17, No Iterations 8
smoothSolver:  Solving for p, Initial residual = 0.000443599, Final residual = 6.21464e-17, No Iterations 6
diagonal:  Solving for rho, Initial residual = 0, Final residual = 0, No Iterations 0
time step continuity errors : sum local = 1.43864e-16, global = -4.56793e-17, cumulative = -2.70552e-15
ExecutionTime = 0.19 s  ClockTime = 0 s

Courant Number mean: 0.011012 max: 0.320794
Time = 0.00057

PIMPLE: iteration 1
diagonal:  Solving for rho, Initial residual = 0, Final residual = 0, No Iterations 0
smoothSolver:  Solving for Ux, Initial residual = 0.00589624, Final residual = 1.63983e-17, No Iterations 1
smoothSolver:  Solving for e, Initial residual = 0.001323, Final residual = 7.19295e-17, No Iterations 8
smoothSolver:  Solving for p, Initial residual = 0.000451502, Final residual = 6.23274e-17, No Iterations 6
diagonal:  Solving for rho, Initial residual = 0, Final residual = 0, No Iterations 0
time step continuity errors : sum local = 1.41514e-16, global = -4.75836e-17, cumulative = -2.7531e-15
ExecutionTime = 0.19 s  ClockTime = 0 s

Courant Number mean: 0.0112055 max: 0.321917
Time = 0.00058

PIMPLE: iteration 1
diagonal:  Solving for rho, Initial residual = 0, Final residual = 0, No Iterations 0
smoothSolver:  Solving for Ux, Initial residual = 0.00585508, Final residual = 1.37468e-17, No Iterations 1
smoothSolver:  Solving for e, Initial residual = 0.00132085, Final residual = 6.07253e-17, No Iterations 8
smoothSolver:  Solving for p, Initial residual = 0.000447307, Final residual = 6.44765e-17, No Iterations 6
diagonal:  Solving for rho, Initial residual = 0, Final residual = 0, No Iterations 0
time step continuity errors : sum local = 1.38794e-16, global = -4.14007e-17, cumulative = -2.7945e-15
ExecutionTime = 0.19 s  ClockTime = 0 s

Courant Number mean: 0.0113991 max: 0.320749
Time = 0.00059

PIMPLE: iteration 1
diagonal:  Solving for rho, Initial residual = 0, Final residual = 0, No Iterations 0
smoothSolver:  Solving for Ux, Initial residual = 0.00576944, Final residual = 1.29588e-17, No Iterations 1
smoothSolver:  Solving for e, Initial residual = 0.00132957, Final residual = 7.26789e-17, No Iterations 8
smoothSolver:  Solving for p, Initial residual = 0.000455751, Final residual = 6.30338e-17, No Iterations 6
diagonal:  Solving for rho, Initial residual = 0, Final residual = 0, No Iterations 0
time step continuity errors : sum local = 1.42701e-16, global = -4.31319e-17, cumulative = -2.83763e-15
ExecutionTime = 0.19 s  ClockTime = 0 s

Courant Number mean: 0.0115927 max: 0.321818
Time = 0.0006

PIMPLE: iteration 1
diagonal:  Solving for rho, Initial residual = 0, Final residual = 0, No Iterations 0
smoothSolver:  Solving for Ux, Initial residual = 0.00572349, Final residual = 1.32636e-17, No Iterations 1
smoothSolver:  Solving for e, Initial residual = 0.00132488, Final residual = 5.8257e-17, No Iterations 8
smoothSolver:  Solving for p, Initial residual = 0.00045092, Final residual = 6.20342e-17, No Iterations 6
diagonal:  Solving for rho, Initial residual = 0, Final residual = 0, No Iterations 0
time step continuity errors : sum local = 1.35752e-16, global = -4.69159e-17, cumulative = -2.88455e-15
ExecutionTime = 0.19 s  ClockTime = 0 s

Courant Number mean: 0.0117862 max: 0.320595
Time = 0.00061

PIMPLE: iteration 1
diagonal:  Solving for rho, Initial residual = 0, Final residual = 0, No Iterations 0
smoothSolver:  Solving for Ux, Initial residual = 0.00565198, Final residual = 1.378e-17, No Iterations 1
smoothSolver:  Solving for e, Initial residual = 0.00133551, Final residual = 7.21384e-17, No Iterations 8
smoothSolver:  Solving for p, Initial residual = 0.000459945, Final residual = 6.3067e-17, No Iterations 6
diagonal:  Solving for rho, Initial residual = 0, Final residual = 0, No Iterations 0
time step continuity errors : sum local = 1.36197e-16, global = -4.31072e-17, cumulative = -2.92765e-15
ExecutionTime = 0.2 s  ClockTime = 0 s

Courant Number mean: 0.0119799 max: 0.32162
Time = 0.00062

PIMPLE: iteration 1
diagonal:  Solving for rho, Initial residual = 0, Final residual = 0, No Iterations 0
smoothSolver:  Solving for Ux, Initial residual = 0.00559727, Final residual = 1.68654e-17, No Iterations 1
smoothSolver:  Solving for e, Initial residual = 0.00132999, Final residual = 5.85163e-17, No Iterations 8
smoothSolver:  Solving for p, Initial residual = 0.000454384, Final residual = 6.15199e-17, No Iterations 6
diagonal:  Solving for rho, Initial residual = 0, Final residual = 0, No Iterations 0
time step continuity errors : sum local = 1.32463e-16, global = -4.5704e-17, cumulative = -2.97336e-15
ExecutionTime = 0.2 s  ClockTime = 0 s

Courant Number mean: 0.0121732 max: 0.320376
Time = 0.00063

PIMPLE: iteration 1
diagonal:  Solving for rho, Initial residual = 0, Final residual = 0, No Iterations 0
smoothSolver:  Solving for Ux, Initial residual = 0.00553963, Final residual = 1.54e-17, No Iterations 1
smoothSolver:  Solving for e, Initial residual = 0.00134537, Final residual = 7.12451e-17, No Iterations 8
smoothSolver:  Solving for p, Initial residual = 0.000463949, Final residual = 6.42483e-17, No Iterations 6
diagonal:  Solving for rho, Initial residual = 0, Final residual = 0, No Iterations 0
time step continuity errors : sum local = 1.40575e-16, global = -4.5803e-17, cumulative = -3.01916e-15
ExecutionTime = 0.2 s  ClockTime = 0 s

Courant Number mean: 0.012367 max: 0.321352
Time = 0.00064

PIMPLE: iteration 1
diagonal:  Solving for rho, Initial residual = 0, Final residual = 0, No Iterations 0
smoothSolver:  Solving for Ux, Initial residual = 0.00547588, Final residual = 1.39484e-17, No Iterations 1
smoothSolver:  Solving for e, Initial residual = 0.00134301, Final residual = 5.54308e-17, No Iterations 8
smoothSolver:  Solving for p, Initial residual = 0.000457876, Final residual = 6.28197e-17, No Iterations 6
diagonal:  Solving for rho, Initial residual = 0, Final residual = 0, No Iterations 0
time step continuity errors : sum local = 1.36939e-16, global = -4.21179e-17, cumulative = -3.06128e-15
ExecutionTime = 0.2 s  ClockTime = 0 s

Courant Number mean: 0.0125602 max: 0.320093
Time = 0.00065

PIMPLE: iteration 1
diagonal:  Solving for rho, Initial residual = 0, Final residual = 0, No Iterations 0
smoothSolver:  Solving for Ux, Initial residual = 0.00543081, Final residual = 1.42159e-17, No Iterations 1
smoothSolver:  Solving for e, Initial residual = 0.0013587, Final residual = 6.94944e-17, No Iterations 8
smoothSolver:  Solving for p, Initial residual = 0.000467849, Final residual = 6.17719e-17, No Iterations 6
diagonal:  Solving for rho, Initial residual = 0, Final residual = 0, No Iterations 0
time step continuity errors : sum local = 1.40847e-16, global = -4.4047e-17, cumulative = -3.10533e-15
ExecutionTime = 0.21 s  ClockTime = 0 s

Courant Number mean: 0.0127541 max: 0.321021
Time = 0.00066

PIMPLE: iteration 1
diagonal:  Solving for rho, Initial residual = 0, Final residual = 0, No Iterations 0
smoothSolver:  Solving for Ux, Initial residual = 0.00535796, Final residual = 1.1401e-17, No Iterations 1
smoothSolver:  Solving for e, Initial residual = 0.00135598, Final residual = 5.41138e-17, No Iterations 8
smoothSolver:  Solving for p, Initial residual = 0.000461979, Final residual = 6.45828e-17, No Iterations 6
diagonal:  Solving for rho, Initial residual = 0, Final residual = 0, No Iterations 0
time step continuity errors : sum local = 1.45917e-16, global = -5.05514e-17, cumulative = -3.15588e-15
ExecutionTime = 0.21 s  ClockTime = 0 s

Courant Number mean: 0.0129473 max: 0.319746
Time = 0.00067

PIMPLE: iteration 1
diagonal:  Solving for rho, Initial residual = 0, Final residual = 0, No Iterations 0
smoothSolver:  Solving for Ux, Initial residual = 0.00532583, Final residual = 1.58049e-17, No Iterations 1
smoothSolver:  Solving for e, Initial residual = 0.0013803, Final residual = 6.95045e-17, No Iterations 8
smoothSolver:  Solving for p, Initial residual = 0.000471766, Final residual = 6.39557e-17, No Iterations 6
diagonal:  Solving for rho, Initial residual = 0, Final residual = 0, No Iterations 0
time step continuity errors : sum local = 1.38893e-16, global = -4.86224e-17, cumulative = -3.2045e-15
ExecutionTime = 0.21 s  ClockTime = 0 s

Courant Number mean: 0.0131413 max: 0.320632
Time = 0.00068

PIMPLE: iteration 1
diagonal:  Solving for rho, Initial residual = 0, Final residual = 0, No Iterations 0
smoothSolver:  Solving for Ux, Initial residual = 0.0052461, Final residual = 1.43764e-17, No Iterations 1
smoothSolver:  Solving for e, Initial residual = 0.0013686, Final residual = 5.36658e-17, No Iterations 8
smoothSolver:  Solving for p, Initial residual = 0.000465888, Final residual = 6.2468e-17, No Iterations 6
diagonal:  Solving for rho, Initial residual = 0, Final residual = 0, No Iterations 0
time step continuity errors : sum local = 1.41143e-16, global = -4.63718e-17, cumulative = -3.25087e-15
ExecutionTime = 0.21 s  ClockTime = 0 s

Courant Number mean: 0.0133344 max: 0.319328
Time = 0.00069

PIMPLE: iteration 1
diagonal:  Solving for rho, Initial residual = 0, Final residual = 0, No Iterations 0
smoothSolver:  Solving for Ux, Initial residual = 0.00522405, Final residual = 1.65357e-17, No Iterations 1
smoothSolver:  Solving for e, Initial residual = 0.00139797, Final residual = 6.8428e-17, No Iterations 8
smoothSolver:  Solving for p, Initial residual = 0.000475542, Final residual = 6.17256e-17, No Iterations 6
diagonal:  Solving for rho, Initial residual = 0, Final residual = 0, No Iterations 0
time step continuity errors : sum local = 1.51753e-16, global = -4.78804e-17, cumulative = -3.29875e-15
ExecutionTime = 0.22 s  ClockTime = 0 s

Courant Number mean: 0.0135284 max: 0.320277
Time = 0.0007

PIMPLE: iteration 1
diagonal:  Solving for rho, Initial residual = 0, Final residual = 0, No Iterations 0
smoothSolver:  Solving for Ux, Initial residual = 0.00513786, Final residual = 1.69576e-17, No Iterations 1
smoothSolver:  Solving for e, Initial residual = 0.00138468, Final residual = 5.42455e-17, No Iterations 8
smoothSolver:  Solving for p, Initial residual = 0.000469545, Final residual = 6.14731e-17, No Iterations 6
diagonal:  Solving for rho, Initial residual = 0, Final residual = 0, No Iterations 0
time step continuity errors : sum local = 1.45991e-16, global = -4.84987e-17, cumulative = -3.34725e-15
ExecutionTime = 0.22 s  ClockTime = 0 s

Courant Number mean: 0.0137216 max: 0.318765
Time = 0.00071

PIMPLE: iteration 1
diagonal:  Solving for rho, Initial residual = 0, Final residual = 0, No Iterations 0
smoothSolver:  Solving for Ux, Initial residual = 0.00512569, Final residual = 1.16443e-17, No Iterations 1
smoothSolver:  Solving for e, Initial residual = 0.00141293, Final residual = 7.01963e-17, No Iterations 8
smoothSolver:  Solving for p, Initial residual = 0.000479021, Final residual = 6.07625e-17, No Iterations 6
diagonal:  Solving for rho, Initial residual = 0, Final residual = 0, No Iterations 0
time step continuity errors : sum local = 1.48365e-16, global = -4.13265e-17, cumulative = -3.38858e-15
ExecutionTime = 0.22 s  ClockTime = 0 s

Courant Number mean: 0.0139157 max: 0.3198
Time = 0.00072

PIMPLE: iteration 1
diagonal:  Solving for rho, Initial residual = 0, Final residual = 0, No Iterations 0
smoothSolver:  Solving for Ux, Initial residual = 0.00503352, Final residual = 1.70059e-17, No Iterations 1
smoothSolver:  Solving for e, Initial residual = 0.00139959, Final residual = 5.50842e-17, No Iterations 8
smoothSolver:  Solving for p, Initial residual = 0.000473078, Final residual = 6.26869e-17, No Iterations 6
diagonal:  Solving for rho, Initial residual = 0, Final residual = 0, No Iterations 0
time step continuity errors : sum local = 1.41861e-16, global = -5.37665e-17, cumulative = -3.44234e-15
ExecutionTime = 0.22 s  ClockTime = 0 s

Courant Number mean: 0.0141088 max: 0.31816
Time = 0.00073

PIMPLE: iteration 1
diagonal:  Solving for rho, Initial residual = 0, Final residual = 0, No Iterations 0
smoothSolver:  Solving for Ux, Initial residual = 0.00503159, Final residual = 1.4687e-17, No Iterations 1
smoothSolver:  Solving for e, Initial residual = 0.00143258, Final residual = 7.02078e-17, No Iterations 8
smoothSolver:  Solving for p, Initial residual = 0.000482281, Final residual = 6.33842e-17, No Iterations 6
diagonal:  Solving for rho, Initial residual = 0, Final residual = 0, No Iterations 0
time step continuity errors : sum local = 1.43542e-16, global = -4.53578e-17, cumulative = -3.4877e-15
ExecutionTime = 0.22 s  ClockTime = 0 s

Courant Number mean: 0.014303 max: 0.319274
Time = 0.00074

PIMPLE: iteration 1
diagonal:  Solving for rho, Initial residual = 0, Final residual = 0, No Iterations 0
smoothSolver:  Solving for Ux, Initial residual = 0.00493305, Final residual = 1.81922e-17, No Iterations 1
smoothSolver:  Solving for e, Initial residual = 0.00141701, Final residual = 5.45836e-17, No Iterations 8
smoothSolver:  Solving for p, Initial residual = 0.000476577, Final residual = 6.26662e-17, No Iterations 6
diagonal:  Solving for rho, Initial residual = 0, Final residual = 0, No Iterations 0
time step continuity errors : sum local = 1.45471e-16, global = -5.9158e-17, cumulative = -3.54686e-15
ExecutionTime = 0.23 s  ClockTime = 0 s

Courant Number mean: 0.0144961 max: 0.317496
Time = 0.00075

PIMPLE: iteration 1
diagonal:  Solving for rho, Initial residual = 0, Final residual = 0, No Iterations 0
smoothSolver:  Solving for Ux, Initial residual = 0.00494105, Final residual = 1.64561e-17, No Iterations 1
smoothSolver:  Solving for e, Initial residual = 0.00145005, Final residual = 6.93857e-17, No Iterations 8
smoothSolver:  Solving for p, Initial residual = 0.000485438, Final residual = 6.21756e-17, No Iterations 6
diagonal:  Solving for rho, Initial residual = 0, Final residual = 0, No Iterations 0
time step continuity errors : sum local = 1.44705e-16, global = -5.71548e-17, cumulative = -3.60402e-15
ExecutionTime = 0.23 s  ClockTime = 0 s

Courant Number mean: 0.0146903 max: 0.318696
Time = 0.00076

PIMPLE: iteration 1
diagonal:  Solving for rho, Initial residual = 0, Final residual = 0, No Iterations 0
smoothSolver:  Solving for Ux, Initial residual = 0.00483724, Final residual = 1.63259e-17, No Iterations 1
smoothSolver:  Solving for e, Initial residual = 0.00143633, Final residual = 5.47315e-17, No Iterations 8
smoothSolver:  Solving for p, Initial residual = 0.000480027, Final residual = 6.17378e-17, No Iterations 6
diagonal:  Solving for rho, Initial residual = 0, Final residual = 0, No Iterations 0
time step continuity errors : sum local = 1.40352e-16, global = -4.37008e-17, cumulative = -3.64772e-15
ExecutionTime = 0.23 s  ClockTime = 0 s

Courant Number mean: 0.0148834 max: 0.316776
Time = 0.00077

PIMPLE: iteration 1
diagonal:  Solving for rho, Initial residual = 0, Final residual = 0, No Iterations 0
smoothSolver:  Solving for Ux, Initial residual = 0.00485387, Final residual = 1.6036e-17, No Iterations 1
smoothSolver:  Solving for e, Initial residual = 0.00146646, Final residual = 7.03127e-17, No Iterations 8
smoothSolver:  Solving for p, Initial residual = 0.000488477, Final residual = 6.22948e-17, No Iterations 6
diagonal:  Solving for rho, Initial residual = 0, Final residual = 0, No Iterations 0
time step continuity errors : sum local = 1.42429e-16, global = -4.01394e-17, cumulative = -3.68786e-15
ExecutionTime = 0.23 s  ClockTime = 0 s

Courant Number mean: 0.0150777 max: 0.318071
Time = 0.00078

PIMPLE: iteration 1
diagonal:  Solving for rho, Initial residual = 0, Final residual = 0, No Iterations 0
smoothSolver:  Solving for Ux, Initial residual = 0.0047443, Final residual = 1.51065e-17, No Iterations 1
smoothSolver:  Solving for e, Initial residual = 0.00145313, Final residual = 5.60118e-17, No Iterations 8
smoothSolver:  Solving for p, Initial residual = 0.000483478, Final residual = 6.37112e-17, No Iterations 6
diagonal:  Solving for rho, Initial residual = 0, Final residual = 0, No Iterations 0
time step continuity errors : sum local = 1.43493e-16, global = -5.32719e-17, cumulative = -3.74113e-15
ExecutionTime = 0.23 s  ClockTime = 0 s

Courant Number mean: 0.0152707 max: 0.316001
Time = 0.00079

PIMPLE: iteration 1
diagonal:  Solving for rho, Initial residual = 0, Final residual = 0, No Iterations 0
smoothSolver:  Solving for Ux, Initial residual = 0.00476956, Final residual = 1.73347e-17, No Iterations 1
smoothSolver:  Solving for e, Initial residual = 0.00147953, Final residual = 7.03747e-17, No Iterations 8
smoothSolver:  Solving for p, Initial residual = 0.00049144, Final residual = 6.31729e-17, No Iterations 6
diagonal:  Solving for rho, Initial residual = 0, Final residual = 0, No Iterations 0
time step continuity errors : sum local = 1.41218e-16, global = -4.92654e-17, cumulative = -3.79039e-15
ExecutionTime = 0.24 s  ClockTime = 0 s

Courant Number mean: 0.015465 max: 0.317401
Time = 0.0008

PIMPLE: iteration 1
diagonal:  Solving for rho, Initial residual = 0, Final residual = 0, No Iterations 0
smoothSolver:  Solving for Ux, Initial residual = 0.00465446, Final residual = 1.92685e-17, No Iterations 1
smoothSolver:  Solving for e, Initial residual = 0.00146727, Final residual = 5.69974e-17, No Iterations 8
smoothSolver:  Solving for p, Initial residual = 0.000486781, Final residual = 6.20494e-17, No Iterations 6
diagonal:  Solving for rho, Initial residual = 0, Final residual = 0, No Iterations 0
time step continuity errors : sum local = 1.474e-16, global = -5.69322e-17, cumulative = -3.84732e-15
ExecutionTime = 0.24 s  ClockTime = 0 s

Courant Number mean: 0.0156581 max: 0.315199
Time = 0.00081

PIMPLE: iteration 1
diagonal:  Solving for rho, Initial residual = 0, Final residual = 0, No Iterations 0
smoothSolver:  Solving for Ux, Initial residual = 0.0046881, Final residual = 1.55742e-17, No Iterations 1
smoothSolver:  Solving for e, Initial residual = 0.00149714, Final residual = 7.15896e-17, No Iterations 8
smoothSolver:  Solving for p, Initial residual = 0.000494392, Final residual = 6.26366e-17, No Iterations 6
diagonal:  Solving for rho, Initial residual = 0, Final residual = 0, No Iterations 0
time step continuity errors : sum local = 1.40847e-16, global = -5.44838e-17, cumulative = -3.90181e-15
ExecutionTime = 0.24 s  ClockTime = 0 s

Courant Number mean: 0.0158523 max: 0.316688
Time = 0.00082

PIMPLE: iteration 1
diagonal:  Solving for rho, Initial residual = 0, Final residual = 0, No Iterations 0
smoothSolver:  Solving for Ux, Initial residual = 0.0045671, Final residual = 1.46002e-17, No Iterations 1
smoothSolver:  Solving for e, Initial residual = 0.00147977, Final residual = 5.86581e-17, No Iterations 8
smoothSolver:  Solving for p, Initial residual = 0.000490117, Final residual = 6.21134e-17, No Iterations 6
diagonal:  Solving for rho, Initial residual = 0, Final residual = 0, No Iterations 0
time step continuity errors : sum local = 1.39016e-16, global = -5.26536e-17, cumulative = -3.95446e-15
ExecutionTime = 0.24 s  ClockTime = 0 s

Courant Number mean: 0.0160453 max: 0.314502
Time = 0.00083

PIMPLE: iteration 1
diagonal:  Solving for rho, Initial residual = 0, Final residual = 0, No Iterations 0
smoothSolver:  Solving for Ux, Initial residual = 0.00460974, Final residual = 1.7202e-17, No Iterations 1
smoothSolver:  Solving for e, Initial residual = 0.00151252, Final residual = 6.94706e-17, No Iterations 8
smoothSolver:  Solving for p, Initial residual = 0.000497258, Final residual = 6.20025e-17, No Iterations 6
diagonal:  Solving for rho, Initial residual = 0, Final residual = 0, No Iterations 0
time step continuity errors : sum local = 1.44729e-16, global = -5.25794e-17, cumulative = -4.00704e-15
ExecutionTime = 0.24 s  ClockTime = 0 s

Courant Number mean: 0.0162395 max: 0.315947
Time = 0.00084

PIMPLE: iteration 1
diagonal:  Solving for rho, Initial residual = 0, Final residual = 0, No Iterations 0
smoothSolver:  Solving for Ux, Initial residual = 0.00448249, Final residual = 1.73793e-17, No Iterations 1
smoothSolver:  Solving for e, Initial residual = 0.00149352, Final residual = 5.69247e-17, No Iterations 8
smoothSolver:  Solving for p, Initial residual = 0.000493385, Final residual = 6.24738e-17, No Iterations 6
diagonal:  Solving for rho, Initial residual = 0, Final residual = 0, No Iterations 0
time step continuity errors : sum local = 1.39214e-16, global = -5.11697e-17, cumulative = -4.05821e-15
ExecutionTime = 0.24 s  ClockTime = 0 s

Courant Number mean: 0.0164325 max: 0.313762
Time = 0.00085

PIMPLE: iteration 1
diagonal:  Solving for rho, Initial residual = 0, Final residual = 0, No Iterations 0
smoothSolver:  Solving for Ux, Initial residual = 0.00453378, Final residual = 1.66659e-17, No Iterations 1
smoothSolver:  Solving for e, Initial residual = 0.00152702, Final residual = 8.46081e-16, No Iterations 7
smoothSolver:  Solving for p, Initial residual = 0.000499897, Final residual = 6.2563e-17, No Iterations 6
diagonal:  Solving for rho, Initial residual = 0, Final residual = 0, No Iterations 0
time step continuity errors : sum local = 1.45076e-16, global = -6.16312e-17, cumulative = -4.11984e-15
ExecutionTime = 0.24 s  ClockTime = 0 s

Courant Number mean: 0.0166266 max: 0.315495
Time = 0.00086

PIMPLE: iteration 1
diagonal:  Solving for rho, Initial residual = 0, Final residual = 0, No Iterations 0
smoothSolver:  Solving for Ux, Initial residual = 0.00440087, Final residual = 1.44026e-17, No Iterations 1
smoothSolver:  Solving for e, Initial residual = 0.00150954, Final residual = 5.75077e-17, No Iterations 8
smoothSolver:  Solving for p, Initial residual = 0.000495881, Final residual = 6.12538e-17, No Iterations 6
diagonal:  Solving for rho, Initial residual = 0, Final residual = 0, No Iterations 0
time step continuity errors : sum local = 1.42405e-16, global = -4.87213e-17, cumulative = -4.16856e-15
ExecutionTime = 0.25 s  ClockTime = 0 s

Courant Number mean: 0.0168194 max: 0.313207
Time = 0.00087

PIMPLE: iteration 1
diagonal:  Solving for rho, Initial residual = 0, Final residual = 0, No Iterations 0
smoothSolver:  Solving for Ux, Initial residual = 0.00445877, Final residual = 1.70852e-17, No Iterations 1
smoothSolver:  Solving for e, Initial residual = 0.00153716, Final residual = 8.7203e-16, No Iterations 7
smoothSolver:  Solving for p, Initial residual = 0.000502349, Final residual = 6.36239e-17, No Iterations 6
diagonal:  Solving for rho, Initial residual = 0, Final residual = 0, No Iterations 0
time step continuity errors : sum local = 1.41885e-16, global = -5.39891e-17, cumulative = -4.22255e-15
ExecutionTime = 0.25 s  ClockTime = 0 s

Courant Number mean: 0.0170135 max: 0.314618
Time = 0.00088

PIMPLE: iteration 1
diagonal:  Solving for rho, Initial residual = 0, Final residual = 0, No Iterations 0
smoothSolver:  Solving for Ux, Initial residual = 0.00433455, Final residual = 1.65964e-17, No Iterations 1
smoothSolver:  Solving for e, Initial residual = 0.00151945, Final residual = 5.70869e-17, No Iterations 8
smoothSolver:  Solving for p, Initial residual = 0.000498831, Final residual = 6.08557e-17, No Iterations 6
diagonal:  Solving for rho, Initial residual = 0, Final residual = 0, No Iterations 0
time step continuity errors : sum local = 1.4055e-16, global = -5.39397e-17, cumulative = -4.27649e-15
ExecutionTime = 0.25 s  ClockTime = 0 s

Courant Number mean: 0.0172062 max: 0.312405
Time = 0.00089

PIMPLE: iteration 1
diagonal:  Solving for rho, Initial residual = 0, Final residual = 0, No Iterations 0
smoothSolver:  Solving for Ux, Initial residual = 0.00438591, Final residual = 1.63646e-17, No Iterations 1
smoothSolver:  Solving for e, Initial residual = 0.0015458, Final residual = 8.82295e-16, No Iterations 7
smoothSolver:  Solving for p, Initial residual = 0.000504524, Final residual = 6.15977e-17, No Iterations 6
diagonal:  Solving for rho, Initial residual = 0, Final residual = 0, No Iterations 0
time step continuity errors : sum local = 1.37087e-16, global = -4.85482e-17, cumulative = -4.32504e-15
ExecutionTime = 0.25 s  ClockTime = 0 s

Courant Number mean: 0.0174002 max: 0.31374
Time = 0.0009

PIMPLE: iteration 1
diagonal:  Solving for rho, Initial residual = 0, Final residual = 0, No Iterations 0
smoothSolver:  Solving for Ux, Initial residual = 0.0042722, Final residual = 1.54627e-17, No Iterations 1
smoothSolver:  Solving for e, Initial residual = 0.00153056, Final residual = 5.83588e-17, No Iterations 8
smoothSolver:  Solving for p, Initial residual = 0.000501687, Final residual = 6.26041e-17, No Iterations 6
diagonal:  Solving for rho, Initial residual = 0, Final residual = 0, No Iterations 0
time step continuity errors : sum local = 1.48785e-16, global = -5.45085e-17, cumulative = -4.37955e-15
ExecutionTime = 0.25 s  ClockTime = 0 s

Courant Number mean: 0.0175929 max: 0.31158
Time = 0.00091

PIMPLE: iteration 1
diagonal:  Solving for rho, Initial residual = 0, Final residual = 0, No Iterations 0
smoothSolver:  Solving for Ux, Initial residual = 0.00431659, Final residual = 1.62104e-17, No Iterations 1
smoothSolver:  Solving for e, Initial residual = 0.00155431, Final residual = 9.05461e-16, No Iterations 7
smoothSolver:  Solving for p, Initial residual = 0.000506648, Final residual = 6.26161e-17, No Iterations 6
diagonal:  Solving for rho, Initial residual = 0, Final residual = 0, No Iterations 0
time step continuity errors : sum local = 1.4144e-16, global = -5.2159e-17, cumulative = -4.43171e-15
ExecutionTime = 0.26 s  ClockTime = 0 s

Courant Number mean: 0.0177867 max: 0.312842
Time = 0.00092

PIMPLE: iteration 1
diagonal:  Solving for rho, Initial residual = 0, Final residual = 0, No Iterations 0
smoothSolver:  Solving for Ux, Initial residual = 0.0042132, Final residual = 1.3965e-17, No Iterations 1
smoothSolver:  Solving for e, Initial residual = 0.00154244, Final residual = 5.87835e-17, No Iterations 8
smoothSolver:  Solving for p, Initial residual = 0.000504494, Final residual = 6.18911e-17, No Iterations 6
diagonal:  Solving for rho, Initial residual = 0, Final residual = 0, No Iterations 0
time step continuity errors : sum local = 1.36716e-16, global = -4.12523e-17, cumulative = -4.47296e-15
ExecutionTime = 0.26 s  ClockTime = 0 s

Courant Number mean: 0.0179794 max: 0.310736
Time = 0.00093

PIMPLE: iteration 1
diagonal:  Solving for rho, Initial residual = 0, Final residual = 0, No Iterations 0
smoothSolver:  Solving for Ux, Initial residual = 0.00425065, Final residual = 1.57411e-17, No Iterations 1
smoothSolver:  Solving for e, Initial residual = 0.00156138, Final residual = 9.24438e-16, No Iterations 7
smoothSolver:  Solving for p, Initial residual = 0.000509012, Final residual = 6.11929e-17, No Iterations 6
diagonal:  Solving for rho, Initial residual = 0, Final residual = 0, No Iterations 0
time step continuity errors : sum local = 1.46955e-16, global = -5.66354e-17, cumulative = -4.5296e-15
ExecutionTime = 0.26 s  ClockTime = 0 s

Courant Number mean: 0.0181732 max: 0.31197
Time = 0.00094

PIMPLE: iteration 1
diagonal:  Solving for rho, Initial residual = 0, Final residual = 0, No Iterations 0
smoothSolver:  Solving for Ux, Initial residual = 0.00415666, Final residual = 1.98276e-17, No Iterations 1
smoothSolver:  Solving for e, Initial residual = 0.00155239, Final residual = 5.89472e-17, No Iterations 8
smoothSolver:  Solving for p, Initial residual = 0.000507415, Final residual = 6.30698e-17, No Iterations 6
diagonal:  Solving for rho, Initial residual = 0, Final residual = 0, No Iterations 0
time step continuity errors : sum local = 1.42924e-16, global = -4.4789e-17, cumulative = -4.57439e-15
ExecutionTime = 0.26 s  ClockTime = 0 s

Courant Number mean: 0.0183659 max: 0.309899
Time = 0.00095

PIMPLE: iteration 1
diagonal:  Solving for rho, Initial residual = 0, Final residual = 0, No Iterations 0
smoothSolver:  Solving for Ux, Initial residual = 0.00418709, Final residual = 1.52018e-17, No Iterations 1
smoothSolver:  Solving for e, Initial residual = 0.00156715, Final residual = 9.33642e-16, No Iterations 7
smoothSolver:  Solving for p, Initial residual = 0.000511332, Final residual = 6.07698e-17, No Iterations 6
diagonal:  Solving for rho, Initial residual = 0, Final residual = 0, No Iterations 0
time step continuity errors : sum local = 1.47326e-16, global = -4.25137e-17, cumulative = -4.6169e-15
ExecutionTime = 0.27 s  ClockTime = 0 s

Courant Number mean: 0.0185595 max: 0.311103
Time = 0.00096

PIMPLE: iteration 1
diagonal:  Solving for rho, Initial residual = 0, Final residual = 0, No Iterations 0
smoothSolver:  Solving for Ux, Initial residual = 0.004102, Final residual = 1.50435e-17, No Iterations 1
smoothSolver:  Solving for e, Initial residual = 0.00156117, Final residual = 6.02485e-17, No Iterations 8
smoothSolver:  Solving for p, Initial residual = 0.000510358, Final residual = 6.15145e-17, No Iterations 6
diagonal:  Solving for rho, Initial residual = 0, Final residual = 0, No Iterations 0
time step continuity errors : sum local = 1.44482e-16, global = -5.5201e-17, cumulative = -4.6721e-15
ExecutionTime = 0.27 s  ClockTime = 0 s

Courant Number mean: 0.0187522 max: 0.309092
Time = 0.00097

PIMPLE: iteration 1
diagonal:  Solving for rho, Initial residual = 0, Final residual = 0, No Iterations 0
smoothSolver:  Solving for Ux, Initial residual = 0.00412585, Final residual = 1.56977e-17, No Iterations 1
smoothSolver:  Solving for e, Initial residual = 0.00157311, Final residual = 8.94158e-16, No Iterations 7
smoothSolver:  Solving for p, Initial residual = 0.00051293, Final residual = 6.44099e-17, No Iterations 6
diagonal:  Solving for rho, Initial residual = 0, Final residual = 0, No Iterations 0
time step continuity errors : sum local = 1.40921e-16, global = -4.49621e-17, cumulative = -4.71706e-15
ExecutionTime = 0.27 s  ClockTime = 0 s

Courant Number mean: 0.0189457 max: 0.310119
Time = 0.00098

PIMPLE: iteration 1
diagonal:  Solving for rho, Initial residual = 0, Final residual = 0, No Iterations 0
smoothSolver:  Solving for Ux, Initial residual = 0.00404865, Final residual = 1.82478e-17, No Iterations 1
smoothSolver:  Solving for e, Initial residual = 0.00156859, Final residual = 5.83856e-17, No Iterations 8
smoothSolver:  Solving for p, Initial residual = 0.000513262, Final residual = 6.33529e-17, No Iterations 6
diagonal:  Solving for rho, Initial residual = 0, Final residual = 0, No Iterations 0
time step continuity errors : sum local = 1.46782e-16, global = -5.3445e-17, cumulative = -4.77051e-15
ExecutionTime = 0.27 s  ClockTime = 0 s

Courant Number mean: 0.0191385 max: 0.30824
Time = 0.00099

PIMPLE: iteration 1
diagonal:  Solving for rho, Initial residual = 0, Final residual = 0, No Iterations 0
smoothSolver:  Solving for Ux, Initial residual = 0.00406603, Final residual = 1.50863e-17, No Iterations 1
smoothSolver:  Solving for e, Initial residual = 0.00157935, Final residual = 8.99828e-16, No Iterations 7
smoothSolver:  Solving for p, Initial residual = 0.000514873, Final residual = 6.32138e-17, No Iterations 6
diagonal:  Solving for rho, Initial residual = 0, Final residual = 0, No Iterations 0
time step continuity errors : sum local = 1.45991e-16, global = -5.29999e-17, cumulative = -4.82351e-15
ExecutionTime = 0.27 s  ClockTime = 0 s

Courant Number mean: 0.0193317 max: 0.30915
Time = 0.001

PIMPLE: iteration 1
diagonal:  Solving for rho, Initial residual = 0, Final residual = 0, No Iterations 0
smoothSolver:  Solving for Ux, Initial residual = 0.00399732, Final residual = 1.62569e-17, No Iterations 1
smoothSolver:  Solving for e, Initial residual = 0.00157453, Final residual = 5.83254e-17, No Iterations 8
smoothSolver:  Solving for p, Initial residual = 0.000516008, Final residual = 6.57559e-17, No Iterations 6
diagonal:  Solving for rho, Initial residual = 0, Final residual = 0, No Iterations 0
time step continuity errors : sum local = 1.3914e-16, global = -4.22911e-17, cumulative = -4.8658e-15
ExecutionTime = 0.28 s  ClockTime = 0 s

    functionObjects::mag mag(U) writing field: mag(U)
Courant Number mean: 0.0195245 max: 0.307406
Time = 0.00101

PIMPLE: iteration 1
diagonal:  Solving for rho, Initial residual = 0, Final residual = 0, No Iterations 0
smoothSolver:  Solving for Ux, Initial residual = 0.00400751, Final residual = 1.76295e-17, No Iterations 1
smoothSolver:  Solving for e, Initial residual = 0.00158387, Final residual = 8.99286e-16, No Iterations 7
smoothSolver:  Solving for p, Initial residual = 0.000516652, Final residual = 6.46241e-17, No Iterations 6
diagonal:  Solving for rho, Initial residual = 0, Final residual = 0, No Iterations 0
time step continuity errors : sum local = 1.43592e-16, global = -4.63965e-17, cumulative = -4.91219e-15
ExecutionTime = 0.28 s  ClockTime = 0 s

Courant Number mean: 0.0197176 max: 0.308172
Time = 0.00102

PIMPLE: iteration 1
diagonal:  Solving for rho, Initial residual = 0, Final residual = 0, No Iterations 0
smoothSolver:  Solving for Ux, Initial residual = 0.00394716, Final residual = 1.66701e-17, No Iterations 1
smoothSolver:  Solving for e, Initial residual = 0.00157924, Final residual = 5.7184e-17, No Iterations 8
smoothSolver:  Solving for p, Initial residual = 0.000518609, Final residual = 6.34226e-17, No Iterations 6
diagonal:  Solving for rho, Initial residual = 0, Final residual = 0, No Iterations 0
time step continuity errors : sum local = 1.47153e-16, global = -4.85234e-17, cumulative = -4.96072e-15
ExecutionTime = 0.29 s  ClockTime = 0 s

Courant Number mean: 0.0199105 max: 0.306581
Time = 0.00103

PIMPLE: iteration 1
diagonal:  Solving for rho, Initial residual = 0, Final residual = 0, No Iterations 0
smoothSolver:  Solving for Ux, Initial residual = 0.00394998, Final residual = 1.65003e-17, No Iterations 1
smoothSolver:  Solving for e, Initial residual = 0.00158715, Final residual = 9.01005e-16, No Iterations 7
smoothSolver:  Solving for p, Initial residual = 0.000518347, Final residual = 6.37168e-17, No Iterations 6
diagonal:  Solving for rho, Initial residual = 0, Final residual = 0, No Iterations 0
time step continuity errors : sum local = 1.43295e-16, global = -4.64954e-17, cumulative = -5.00721e-15
ExecutionTime = 0.29 s  ClockTime = 0 s

Courant Number mean: 0.0201035 max: 0.307196
Time = 0.00104

PIMPLE: iteration 1
diagonal:  Solving for rho, Initial residual = 0, Final residual = 0, No Iterations 0
smoothSolver:  Solving for Ux, Initial residual = 0.00389827, Final residual = 1.55372e-17, No Iterations 1
smoothSolver:  Solving for e, Initial residual = 0.00158354, Final residual = 5.88095e-17, No Iterations 8
smoothSolver:  Solving for p, Initial residual = 0.000521182, Final residual = 6.32328e-17, No Iterations 6
diagonal:  Solving for rho, Initial residual = 0, Final residual = 0, No Iterations 0
time step continuity errors : sum local = 1.42256e-16, global = -4.31814e-17, cumulative = -5.05039e-15
ExecutionTime = 0.29 s  ClockTime = 0 s

Courant Number mean: 0.0202965 max: 0.305753
Time = 0.00105

PIMPLE: iteration 1
diagonal:  Solving for rho, Initial residual = 0, Final residual = 0, No Iterations 0
smoothSolver:  Solving for Ux, Initial residual = 0.00389384, Final residual = 1.58734e-17, No Iterations 1
smoothSolver:  Solving for e, Initial residual = 0.00158957, Final residual = 9.04432e-16, No Iterations 7
smoothSolver:  Solving for p, Initial residual = 0.00051996, Final residual = 6.33253e-17, No Iterations 6
diagonal:  Solving for rho, Initial residual = 0, Final residual = 0, No Iterations 0
time step continuity errors : sum local = 1.41069e-16, global = -5.57451e-17, cumulative = -5.10614e-15
ExecutionTime = 0.29 s  ClockTime = 0 s

Courant Number mean: 0.0204893 max: 0.30616
Time = 0.00106

PIMPLE: iteration 1
diagonal:  Solving for rho, Initial residual = 0, Final residual = 0, No Iterations 0
smoothSolver:  Solving for Ux, Initial residual = 0.00385075, Final residual = 1.96003e-17, No Iterations 1
smoothSolver:  Solving for e, Initial residual = 0.00158715, Final residual = 6.02039e-17, No Iterations 8
smoothSolver:  Solving for p, Initial residual = 0.000523689, Final residual = 6.22731e-17, No Iterations 6
diagonal:  Solving for rho, Initial residual = 0, Final residual = 0, No Iterations 0
time step continuity errors : sum local = 1.39239e-16, global = -4.46158e-17, cumulative = -5.15076e-15
ExecutionTime = 0.29 s  ClockTime = 0 s

Courant Number mean: 0.0206823 max: 0.304885
Time = 0.00107

PIMPLE: iteration 1
diagonal:  Solving for rho, Initial residual = 0, Final residual = 0, No Iterations 0
smoothSolver:  Solving for Ux, Initial residual = 0.00383974, Final residual = 1.68192e-17, No Iterations 1
smoothSolver:  Solving for e, Initial residual = 0.00159096, Final residual = 9.05534e-16, No Iterations 7
smoothSolver:  Solving for p, Initial residual = 0.000521486, Final residual = 6.17805e-17, No Iterations 6
diagonal:  Solving for rho, Initial residual = 0, Final residual = 0, No Iterations 0
time step continuity errors : sum local = 1.38299e-16, global = -4.68911e-17, cumulative = -5.19765e-15
ExecutionTime = 0.3 s  ClockTime = 0 s

Courant Number mean: 0.020875 max: 0.3051
Time = 0.00108

PIMPLE: iteration 1
diagonal:  Solving for rho, Initial residual = 0, Final residual = 0, No Iterations 0
smoothSolver:  Solving for Ux, Initial residual = 0.00380453, Final residual = 1.51531e-17, No Iterations 1
smoothSolver:  Solving for e, Initial residual = 0.00159073, Final residual = 5.8909e-17, No Iterations 8
smoothSolver:  Solving for p, Initial residual = 0.000526109, Final residual = 6.28903e-17, No Iterations 6
diagonal:  Solving for rho, Initial residual = 0, Final residual = 0, No Iterations 0
time step continuity errors : sum local = 1.41613e-16, global = -5.1788e-17, cumulative = -5.24943e-15
ExecutionTime = 0.3 s  ClockTime = 0 s

Courant Number mean: 0.0210682 max: 0.304003
Time = 0.00109

PIMPLE: iteration 1
diagonal:  Solving for rho, Initial residual = 0, Final residual = 0, No Iterations 0
smoothSolver:  Solving for Ux, Initial residual = 0.00378674, Final residual = 1.60299e-17, No Iterations 1
[...]
smoothSolver:  Solving for Ux, Initial residual = 0.00257456, Final residual = 4.65041e-17, No Iterations 1
smoothSolver:  Solving for e, Initial residual = 0.00319334, Final residual = 1.15677e-16, No Iterations 8
smoothSolver:  Solving for p, Initial residual = 0.00217069, Final residual = 1.00578e-16, No Iterations 6
diagonal:  Solving for rho, Initial residual = 0, Final residual = 0, No Iterations 0
time step continuity errors : sum local = 1.60929e-16, global = -3.75673e-17, cumulative = -4.9681e-14
ExecutionTime = 2.27 s  ClockTime = 2 s

Courant Number mean: 0.170815 max: 0.330741
Time = 0.00974

PIMPLE: iteration 1
diagonal:  Solving for rho, Initial residual = 0, Final residual = 0, No Iterations 0
smoothSolver:  Solving for Ux, Initial residual = 0.00254722, Final residual = 4.43945e-17, No Iterations 1
smoothSolver:  Solving for e, Initial residual = 0.00317451, Final residual = 1.01884e-16, No Iterations 8
smoothSolver:  Solving for p, Initial residual = 0.00216616, Final residual = 1.01285e-16, No Iterations 6
diagonal:  Solving for rho, Initial residual = 0, Final residual = 0, No Iterations 0
time step continuity errors : sum local = 1.57367e-16, global = -3.56383e-17, cumulative = -4.97166e-14
ExecutionTime = 2.27 s  ClockTime = 2 s

Courant Number mean: 0.170982 max: 0.329965
Time = 0.00975

PIMPLE: iteration 1
diagonal:  Solving for rho, Initial residual = 0, Final residual = 0, No Iterations 0
smoothSolver:  Solving for Ux, Initial residual = 0.00257541, Final residual = 4.53713e-17, No Iterations 1
smoothSolver:  Solving for e, Initial residual = 0.00319792, Final residual = 1.17525e-16, No Iterations 8
smoothSolver:  Solving for p, Initial residual = 0.00217346, Final residual = 9.78329e-17, No Iterations 6
diagonal:  Solving for rho, Initial residual = 0, Final residual = 0, No Iterations 0
time step continuity errors : sum local = 1.57788e-16, global = -3.36845e-17, cumulative = -4.97503e-14
ExecutionTime = 2.27 s  ClockTime = 2 s

Courant Number mean: 0.17115 max: 0.330952
Time = 0.00976

PIMPLE: iteration 1
diagonal:  Solving for rho, Initial residual = 0, Final residual = 0, No Iterations 0
smoothSolver:  Solving for Ux, Initial residual = 0.00254985, Final residual = 4.51362e-17, No Iterations 1
smoothSolver:  Solving for e, Initial residual = 0.00318091, Final residual = 1.02875e-16, No Iterations 8
smoothSolver:  Solving for p, Initial residual = 0.00216861, Final residual = 1.02543e-16, No Iterations 6
diagonal:  Solving for rho, Initial residual = 0, Final residual = 0, No Iterations 0
time step continuity errors : sum local = 1.64836e-16, global = -5.18127e-17, cumulative = -4.98021e-14
ExecutionTime = 2.27 s  ClockTime = 2 s

Courant Number mean: 0.171316 max: 0.330018
Time = 0.00977

PIMPLE: iteration 1
diagonal:  Solving for rho, Initial residual = 0, Final residual = 0, No Iterations 0
smoothSolver:  Solving for Ux, Initial residual = 0.00257223, Final residual = 4.43967e-17, No Iterations 1
smoothSolver:  Solving for e, Initial residual = 0.00320481, Final residual = 1.1967e-16, No Iterations 8
smoothSolver:  Solving for p, Initial residual = 0.00217382, Final residual = 1.05741e-16, No Iterations 6
diagonal:  Solving for rho, Initial residual = 0, Final residual = 0, No Iterations 0
time step continuity errors : sum local = 1.6402e-16, global = -3.34866e-17, cumulative = -4.98356e-14
ExecutionTime = 2.28 s  ClockTime = 2 s

Courant Number mean: 0.171484 max: 0.331082
Time = 0.00978

PIMPLE: iteration 1
diagonal:  Solving for rho, Initial residual = 0, Final residual = 0, No Iterations 0
smoothSolver:  Solving for Ux, Initial residual = 0.00255255, Final residual = 4.63024e-17, No Iterations 1
smoothSolver:  Solving for e, Initial residual = 0.00318628, Final residual = 1.05259e-16, No Iterations 8
smoothSolver:  Solving for p, Initial residual = 0.00217123, Final residual = 1.0044e-16, No Iterations 6
diagonal:  Solving for rho, Initial residual = 0, Final residual = 0, No Iterations 0
time step continuity errors : sum local = 1.63377e-16, global = -4.32803e-17, cumulative = -4.98789e-14
ExecutionTime = 2.28 s  ClockTime = 2 s

Courant Number mean: 0.171651 max: 0.329996
Time = 0.00979

PIMPLE: iteration 1
diagonal:  Solving for rho, Initial residual = 0, Final residual = 0, No Iterations 0
smoothSolver:  Solving for Ux, Initial residual = 0.0025695, Final residual = 4.63384e-17, No Iterations 1
smoothSolver:  Solving for e, Initial residual = 0.00320962, Final residual = 1.21327e-16, No Iterations 8
smoothSolver:  Solving for p, Initial residual = 0.00217195, Final residual = 1.01088e-16, No Iterations 6
diagonal:  Solving for rho, Initial residual = 0, Final residual = 0, No Iterations 0
time step continuity errors : sum local = 1.60978e-16, global = -4.99331e-17, cumulative = -4.99288e-14
ExecutionTime = 2.28 s  ClockTime = 2 s

Courant Number mean: 0.171818 max: 0.331112
Time = 0.0098

PIMPLE: iteration 1
diagonal:  Solving for rho, Initial residual = 0, Final residual = 0, No Iterations 0
smoothSolver:  Solving for Ux, Initial residual = 0.0025572, Final residual = 4.40738e-17, No Iterations 1
smoothSolver:  Solving for e, Initial residual = 0.00319118, Final residual = 1.03864e-16, No Iterations 8
smoothSolver:  Solving for p, Initial residual = 0.00217519, Final residual = 1.00721e-16, No Iterations 6
diagonal:  Solving for rho, Initial residual = 0, Final residual = 0, No Iterations 0
time step continuity errors : sum local = 1.53336e-16, global = -3.68996e-17, cumulative = -4.99657e-14
ExecutionTime = 2.28 s  ClockTime = 2 s

Courant Number mean: 0.171985 max: 0.329875
Time = 0.00981

PIMPLE: iteration 1
diagonal:  Solving for rho, Initial residual = 0, Final residual = 0, No Iterations 0
smoothSolver:  Solving for Ux, Initial residual = 0.0025663, Final residual = 4.50331e-17, No Iterations 1
smoothSolver:  Solving for e, Initial residual = 0.003211, Final residual = 1.22186e-16, No Iterations 8
smoothSolver:  Solving for p, Initial residual = 0.00217125, Final residual = 1.0325e-16, No Iterations 6
diagonal:  Solving for rho, Initial residual = 0, Final residual = 0, No Iterations 0
time step continuity errors : sum local = 1.53113e-16, global = -4.32556e-17, cumulative = -5.0009e-14
ExecutionTime = 2.28 s  ClockTime = 2 s

Courant Number mean: 0.172153 max: 0.331077
Time = 0.00982

PIMPLE: iteration 1
diagonal:  Solving for rho, Initial residual = 0, Final residual = 0, No Iterations 0
smoothSolver:  Solving for Ux, Initial residual = 0.0025577, Final residual = 4.51284e-17, No Iterations 1
smoothSolver:  Solving for e, Initial residual = 0.00319535, Final residual = 1.03496e-16, No Iterations 8
smoothSolver:  Solving for p, Initial residual = 0.00217713, Final residual = 1.03377e-16, No Iterations 6
diagonal:  Solving for rho, Initial residual = 0, Final residual = 0, No Iterations 0
time step continuity errors : sum local = 1.56032e-16, global = -4.58277e-17, cumulative = -5.00548e-14
ExecutionTime = 2.29 s  ClockTime = 2 s

Courant Number mean: 0.172319 max: 0.329877
Time = 0.00983

PIMPLE: iteration 1
diagonal:  Solving for rho, Initial residual = 0, Final residual = 0, No Iterations 0
smoothSolver:  Solving for Ux, Initial residual = 0.00256269, Final residual = 4.5347e-17, No Iterations 1
smoothSolver:  Solving for e, Initial residual = 0.00320899, Final residual = 1.21955e-16, No Iterations 8
smoothSolver:  Solving for p, Initial residual = 0.00217101, Final residual = 1.01329e-16, No Iterations 6
diagonal:  Solving for rho, Initial residual = 0, Final residual = 0, No Iterations 0
time step continuity errors : sum local = 1.51085e-16, global = -2.85156e-17, cumulative = -5.00833e-14
ExecutionTime = 2.29 s  ClockTime = 2 s

Courant Number mean: 0.172487 max: 0.331016
Time = 0.00984

PIMPLE: iteration 1
diagonal:  Solving for rho, Initial residual = 0, Final residual = 0, No Iterations 0
smoothSolver:  Solving for Ux, Initial residual = 0.00255808, Final residual = 4.66477e-17, No Iterations 1
smoothSolver:  Solving for e, Initial residual = 0.00319896, Final residual = 1.03218e-16, No Iterations 8
smoothSolver:  Solving for p, Initial residual = 0.00217825, Final residual = 1.04097e-16, No Iterations 6
diagonal:  Solving for rho, Initial residual = 0, Final residual = 0, No Iterations 0
time step continuity errors : sum local = 1.59544e-16, global = -4.59266e-17, cumulative = -5.01293e-14
ExecutionTime = 2.29 s  ClockTime = 2 s

Courant Number mean: 0.172653 max: 0.329848
Time = 0.00985

PIMPLE: iteration 1
diagonal:  Solving for rho, Initial residual = 0, Final residual = 0, No Iterations 0
smoothSolver:  Solving for Ux, Initial residual = 0.00256192, Final residual = 4.50946e-17, No Iterations 1
smoothSolver:  Solving for e, Initial residual = 0.00320735, Final residual = 1.23036e-16, No Iterations 8
smoothSolver:  Solving for p, Initial residual = 0.00217349, Final residual = 9.78993e-17, No Iterations 6
diagonal:  Solving for rho, Initial residual = 0, Final residual = 0, No Iterations 0
time step continuity errors : sum local = 1.49428e-16, global = -3.41296e-17, cumulative = -5.01634e-14
ExecutionTime = 2.29 s  ClockTime = 2 s

Courant Number mean: 0.172821 max: 0.330876
Time = 0.00986

PIMPLE: iteration 1
diagonal:  Solving for rho, Initial residual = 0, Final residual = 0, No Iterations 0
smoothSolver:  Solving for Ux, Initial residual = 0.00255684, Final residual = 4.51929e-17, No Iterations 1
smoothSolver:  Solving for e, Initial residual = 0.0032002, Final residual = 1.03419e-16, No Iterations 8
smoothSolver:  Solving for p, Initial residual = 0.0021781, Final residual = 1.01711e-16, No Iterations 6
diagonal:  Solving for rho, Initial residual = 0, Final residual = 0, No Iterations 0
time step continuity errors : sum local = 1.55018e-16, global = -4.05599e-17, cumulative = -5.0204e-14
ExecutionTime = 2.29 s  ClockTime = 2 s

Courant Number mean: 0.172987 max: 0.329744
Time = 0.00987

PIMPLE: iteration 1
diagonal:  Solving for rho, Initial residual = 0, Final residual = 0, No Iterations 0
smoothSolver:  Solving for Ux, Initial residual = 0.00255983, Final residual = 4.61068e-17, No Iterations 1
smoothSolver:  Solving for e, Initial residual = 0.00320626, Final residual = 1.22924e-16, No Iterations 8
smoothSolver:  Solving for p, Initial residual = 0.00217791, Final residual = 1.05491e-16, No Iterations 6
diagonal:  Solving for rho, Initial residual = 0, Final residual = 0, No Iterations 0
time step continuity errors : sum local = 1.55611e-16, global = -3.85319e-17, cumulative = -5.02425e-14
ExecutionTime = 2.3 s  ClockTime = 2 s

Courant Number mean: 0.173155 max: 0.330661
Time = 0.00988

PIMPLE: iteration 1
diagonal:  Solving for rho, Initial residual = 0, Final residual = 0, No Iterations 0
smoothSolver:  Solving for Ux, Initial residual = 0.00255371, Final residual = 4.6643e-17, No Iterations 1
smoothSolver:  Solving for e, Initial residual = 0.00319899, Final residual = 9.99099e-17, No Iterations 8
smoothSolver:  Solving for p, Initial residual = 0.00217661, Final residual = 1.00798e-16, No Iterations 6
diagonal:  Solving for rho, Initial residual = 0, Final residual = 0, No Iterations 0
time step continuity errors : sum local = 1.58381e-16, global = -3.8334e-17, cumulative = -5.02808e-14
ExecutionTime = 2.3 s  ClockTime = 2 s

Courant Number mean: 0.173321 max: 0.329511
Time = 0.00989

PIMPLE: iteration 1
diagonal:  Solving for rho, Initial residual = 0, Final residual = 0, No Iterations 0
smoothSolver:  Solving for Ux, Initial residual = 0.00255999, Final residual = 4.64212e-17, No Iterations 1
smoothSolver:  Solving for e, Initial residual = 0.0032081, Final residual = 1.21204e-16, No Iterations 8
smoothSolver:  Solving for p, Initial residual = 0.00218151, Final residual = 1.02722e-16, No Iterations 6
diagonal:  Solving for rho, Initial residual = 0, Final residual = 0, No Iterations 0
time step continuity errors : sum local = 1.50541e-16, global = -4.02878e-17, cumulative = -5.03211e-14
ExecutionTime = 2.3 s  ClockTime = 2 s

Courant Number mean: 0.173488 max: 0.330321
Time = 0.0099

PIMPLE: iteration 1
diagonal:  Solving for rho, Initial residual = 0, Final residual = 0, No Iterations 0
smoothSolver:  Solving for Ux, Initial residual = 0.00254787, Final residual = 4.52042e-17, No Iterations 1
smoothSolver:  Solving for e, Initial residual = 0.0031942, Final residual = 9.93835e-17, No Iterations 8
smoothSolver:  Solving for p, Initial residual = 0.00217651, Final residual = 9.96633e-17, No Iterations 6
diagonal:  Solving for rho, Initial residual = 0, Final residual = 0, No Iterations 0
time step continuity errors : sum local = 1.60261e-16, global = -4.25384e-17, cumulative = -5.03636e-14
ExecutionTime = 2.3 s  ClockTime = 2 s

Courant Number mean: 0.173655 max: 0.329222
Time = 0.00991

PIMPLE: iteration 1
diagonal:  Solving for rho, Initial residual = 0, Final residual = 0, No Iterations 0
smoothSolver:  Solving for Ux, Initial residual = 0.00255917, Final residual = 4.78517e-17, No Iterations 1
smoothSolver:  Solving for e, Initial residual = 0.00321004, Final residual = 1.19003e-16, No Iterations 8
smoothSolver:  Solving for p, Initial residual = 0.0021839, Final residual = 1.00108e-16, No Iterations 6
diagonal:  Solving for rho, Initial residual = 0, Final residual = 0, No Iterations 0
time step continuity errors : sum local = 1.62338e-16, global = -4.59019e-17, cumulative = -5.04095e-14
ExecutionTime = 2.3 s  ClockTime = 2 s

Courant Number mean: 0.173822 max: 0.329933
Time = 0.00992

PIMPLE: iteration 1
diagonal:  Solving for rho, Initial residual = 0, Final residual = 0, No Iterations 0
smoothSolver:  Solving for Ux, Initial residual = 0.00255018, Final residual = 4.64405e-17, No Iterations 1
smoothSolver:  Solving for e, Initial residual = 0.00318624, Final residual = 9.92702e-17, No Iterations 8
smoothSolver:  Solving for p, Initial residual = 0.0021776, Final residual = 1.0942e-16, No Iterations 6
diagonal:  Solving for rho, Initial residual = 0, Final residual = 0, No Iterations 0
time step continuity errors : sum local = 1.59766e-16, global = -4.15986e-17, cumulative = -5.04511e-14
ExecutionTime = 2.3 s  ClockTime = 2 s

Courant Number mean: 0.173988 max: 0.328734
Time = 0.00993

PIMPLE: iteration 1
diagonal:  Solving for rho, Initial residual = 0, Final residual = 0, No Iterations 0
smoothSolver:  Solving for Ux, Initial residual = 0.00255725, Final residual = 4.63864e-17, No Iterations 1
smoothSolver:  Solving for e, Initial residual = 0.00320908, Final residual = 1.18743e-16, No Iterations 8
smoothSolver:  Solving for p, Initial residual = 0.00218341, Final residual = 1.01547e-16, No Iterations 6
diagonal:  Solving for rho, Initial residual = 0, Final residual = 0, No Iterations 0
time step continuity errors : sum local = 1.53831e-16, global = -4.96116e-17, cumulative = -5.05008e-14
ExecutionTime = 2.3 s  ClockTime = 2 s

Courant Number mean: 0.174155 max: 0.329344
Time = 0.00994

PIMPLE: iteration 1
diagonal:  Solving for rho, Initial residual = 0, Final residual = 0, No Iterations 0
smoothSolver:  Solving for Ux, Initial residual = 0.00255163, Final residual = 4.58559e-17, No Iterations 1
smoothSolver:  Solving for e, Initial residual = 0.003179, Final residual = 9.59483e-17, No Iterations 8
smoothSolver:  Solving for p, Initial residual = 0.00218007, Final residual = 1.01858e-16, No Iterations 6
diagonal:  Solving for rho, Initial residual = 0, Final residual = 0, No Iterations 0
time step continuity errors : sum local = 1.63056e-16, global = -4.63718e-17, cumulative = -5.05471e-14
ExecutionTime = 2.31 s  ClockTime = 2 s

Courant Number mean: 0.174321 max: 0.328355
Time = 0.00995

PIMPLE: iteration 1
diagonal:  Solving for rho, Initial residual = 0, Final residual = 0, No Iterations 0
smoothSolver:  Solving for Ux, Initial residual = 0.00255242, Final residual = 4.64087e-17, No Iterations 1
smoothSolver:  Solving for e, Initial residual = 0.0032059, Final residual = 1.15047e-16, No Iterations 8
smoothSolver:  Solving for p, Initial residual = 0.00218294, Final residual = 1.01565e-16, No Iterations 6
diagonal:  Solving for rho, Initial residual = 0, Final residual = 0, No Iterations 0
time step continuity errors : sum local = 1.56081e-16, global = -3.97437e-17, cumulative = -5.05869e-14
ExecutionTime = 2.31 s  ClockTime = 2 s

Courant Number mean: 0.174488 max: 0.328828
Time = 0.00996

PIMPLE: iteration 1
diagonal:  Solving for rho, Initial residual = 0, Final residual = 0, No Iterations 0
smoothSolver:  Solving for Ux, Initial residual = 0.00254911, Final residual = 4.47896e-17, No Iterations 1
smoothSolver:  Solving for e, Initial residual = 0.00317477, Final residual = 9.35e-17, No Iterations 8
smoothSolver:  Solving for p, Initial residual = 0.00218051, Final residual = 1.01217e-16, No Iterations 6
diagonal:  Solving for rho, Initial residual = 0, Final residual = 0, No Iterations 0
time step continuity errors : sum local = 1.567e-16, global = -5.33214e-17, cumulative = -5.06402e-14
ExecutionTime = 2.31 s  ClockTime = 2 s

Courant Number mean: 0.174654 max: 0.327819
Time = 0.00997

PIMPLE: iteration 1
diagonal:  Solving for rho, Initial residual = 0, Final residual = 0, No Iterations 0
smoothSolver:  Solving for Ux, Initial residual = 0.00255069, Final residual = 4.45273e-17, No Iterations 1
smoothSolver:  Solving for e, Initial residual = 0.003199, Final residual = 1.13132e-16, No Iterations 8
smoothSolver:  Solving for p, Initial residual = 0.0021831, Final residual = 9.96317e-17, No Iterations 6
diagonal:  Solving for rho, Initial residual = 0, Final residual = 0, No Iterations 0
time step continuity errors : sum local = 1.44903e-16, global = -4.65202e-17, cumulative = -5.06867e-14
ExecutionTime = 2.31 s  ClockTime = 2 s

Courant Number mean: 0.174821 max: 0.328195
Time = 0.00998

PIMPLE: iteration 1
diagonal:  Solving for rho, Initial residual = 0, Final residual = 0, No Iterations 0
smoothSolver:  Solving for Ux, Initial residual = 0.00254369, Final residual = 4.96066e-17, No Iterations 1
smoothSolver:  Solving for e, Initial residual = 0.00317025, Final residual = 9.1613e-17, No Iterations 8
smoothSolver:  Solving for p, Initial residual = 0.00217838, Final residual = 1.03338e-16, No Iterations 6
diagonal:  Solving for rho, Initial residual = 0, Final residual = 0, No Iterations 0
time step continuity errors : sum local = 1.51778e-16, global = -4.75094e-17, cumulative = -5.07342e-14
ExecutionTime = 2.31 s  ClockTime = 2 s

Courant Number mean: 0.174987 max: 0.327188
Time = 0.00999

PIMPLE: iteration 1
diagonal:  Solving for rho, Initial residual = 0, Final residual = 0, No Iterations 0
smoothSolver:  Solving for Ux, Initial residual = 0.00255193, Final residual = 4.36945e-17, No Iterations 1
smoothSolver:  Solving for e, Initial residual = 0.00318935, Final residual = 1.10164e-16, No Iterations 8
smoothSolver:  Solving for p, Initial residual = 0.00218732, Final residual = 9.7712e-17, No Iterations 6
diagonal:  Solving for rho, Initial residual = 0, Final residual = 0, No Iterations 0
time step continuity errors : sum local = 1.47672e-16, global = -4.65696e-17, cumulative = -5.07808e-14
ExecutionTime = 2.32 s  ClockTime = 2 s

Courant Number mean: 0.175154 max: 0.327463
Time = 0.01

PIMPLE: iteration 1
diagonal:  Solving for rho, Initial residual = 0, Final residual = 0, No Iterations 0
smoothSolver:  Solving for Ux, Initial residual = 0.00253687, Final residual = 4.51746e-17, No Iterations 1
smoothSolver:  Solving for e, Initial residual = 0.0031627, Final residual = 8.84367e-17, No Iterations 8
smoothSolver:  Solving for p, Initial residual = 0.00217411, Final residual = 1.04109e-16, No Iterations 6
diagonal:  Solving for rho, Initial residual = 0, Final residual = 0, No Iterations 0
time step continuity errors : sum local = 1.65133e-16, global = -4.59761e-17, cumulative = -5.08268e-14
ExecutionTime = 2.33 s  ClockTime = 2 s

    functionObjects::mag mag(U) writing field: mag(U)
End

