/*---------------------------------------------------------------------------*\
| =========                 |                                                 |
| \\      /  F ield         | OpenFOAM: The Open Source CFD Toolbox           |
|  \\    /   O peration     | Version:  2012                                  |
|   \\  /    A nd           | Website:  www.openfoam.com                      |
|    \\/     M anipulation  |                                                 |
\*---------------------------------------------------------------------------*/
Build  : _269d0ffd5c-20210619 OPENFOAM=2012 patch=210618
Arch   : "LSB;label=32;scalar=64"
Exec   : sonicFoam
Date   : Mar 24 2022
Time   : 16:43:09
Host   : gabrielmarconcini-Lenovo-G50-80
PID    : 52038
I/O    : uncollated
Case   : /home/gabrielmarconcini/Documentos/TCC/PTCC/ShockTube/sim/HydroShockTube/sonicFoam/shockTube_100
nProcs : 1
trapFpe: Floating point exception trapping enabled (FOAM_SIGFPE).
fileModificationChecking : Monitoring run-time modified files using timeStampMaster (fileModificationSkew 5, maxFileModificationPolls 20)
allowSystemOperations : Allowing user-supplied system call operations

// * * * * * * * * * * * * * * * * * * * * * * * * * * * * * * * * * * * * * //
Create time

Create mesh for time = 0


PIMPLE: Operating solver in PISO mode

Reading thermophysical properties

Selecting thermodynamics package 
{
    type            hePsiThermo;
    mixture         pureMixture;
    transport       const;
    thermo          eConst;
    equationOfState perfectGas;
    specie          specie;
    energy          sensibleInternalEnergy;
}

Reading field U

Reading/calculating face flux field phi

Creating turbulence model

Selecting turbulence model type laminar
Selecting laminar stress model Stokes
Creating field kinetic energy K

No MRF models present

No finite volume options present

Starting time loop

Time = 1e-05

Courant Number mean: 0 max: 0
diagonal:  Solving for rho, Initial residual = 0, Final residual = 0, No Iterations 0
PIMPLE: iteration 1
smoothSolver:  Solving for Ux, Initial residual = 1, Final residual = 0, No Iterations 1
smoothSolver:  Solving for e, Initial residual = 5.71873e-17, Final residual = 5.71873e-17, No Iterations 0
smoothSolver:  Solving for p, Initial residual = 1.78207e-05, Final residual = 1.74289e-17, No Iterations 2
diagonal:  Solving for rho, Initial residual = 0, Final residual = 0, No Iterations 0
time step continuity errors : sum local = 9.05177e-17, global = -4.60008e-17, cumulative = -4.60008e-17
ExecutionTime = 0.1 s  ClockTime = 3 s

Time = 2e-05

Courant Number mean: 4.03386e-05 max: 0.00357938
diagonal:  Solving for rho, Initial residual = 0, Final residual = 0, No Iterations 0
PIMPLE: iteration 1
smoothSolver:  Solving for Ux, Initial residual = 0.126773, Final residual = 2.63326e-17, No Iterations 1
smoothSolver:  Solving for e, Initial residual = 8.06184e-05, Final residual = 4.93276e-17, No Iterations 1
smoothSolver:  Solving for p, Initial residual = 7.71848e-05, Final residual = 3.38317e-16, No Iterations 2
diagonal:  Solving for rho, Initial residual = 0, Final residual = 0, No Iterations 0
time step continuity errors : sum local = 6.68496e-16, global = 3.45501e-16, cumulative = 2.995e-16
ExecutionTime = 0.1 s  ClockTime = 3 s

Time = 3e-05

Courant Number mean: 0.000177775 max: 0.0148124
diagonal:  Solving for rho, Initial residual = 0, Final residual = 0, No Iterations 0
PIMPLE: iteration 1
smoothSolver:  Solving for Ux, Initial residual = 0.0666154, Final residual = 9.88579e-18, No Iterations 1
smoothSolver:  Solving for e, Initial residual = 0.000397642, Final residual = 6.36821e-17, No Iterations 2
smoothSolver:  Solving for p, Initial residual = 0.000176888, Final residual = 6.95115e-18, No Iterations 3
diagonal:  Solving for rho, Initial residual = 0, Final residual = 0, No Iterations 0
time step continuity errors : sum local = 6.75173e-17, global = -2.25058e-17, cumulative = 2.76994e-16
ExecutionTime = 0.1 s  ClockTime = 3 s

Time = 4e-05

Courant Number mean: 0.000312557 max: 0.025654
diagonal:  Solving for rho, Initial residual = 0, Final residual = 0, No Iterations 0
PIMPLE: iteration 1
smoothSolver:  Solving for Ux, Initial residual = 0.0445533, Final residual = 3.48967e-18, No Iterations 1
smoothSolver:  Solving for e, Initial residual = 0.000756958, Final residual = 3.33993e-17, No Iterations 3
smoothSolver:  Solving for p, Initial residual = 0.000265032, Final residual = 7.57249e-18, No Iterations 3
diagonal:  Solving for rho, Initial residual = 0, Final residual = 0, No Iterations 0
time step continuity errors : sum local = 8.01304e-17, global = -4.20438e-17, cumulative = 2.3495e-16
ExecutionTime = 0.11 s  ClockTime = 3 s

Time = 5e-05

Courant Number mean: 0.000399261 max: 0.0325056
diagonal:  Solving for rho, Initial residual = 0, Final residual = 0, No Iterations 0
PIMPLE: iteration 1
smoothSolver:  Solving for Ux, Initial residual = 0.0332565, Final residual = 9.85161e-18, No Iterations 1
smoothSolver:  Solving for e, Initial residual = 0.00100436, Final residual = 4.00235e-17, No Iterations 3
smoothSolver:  Solving for p, Initial residual = 0.000326711, Final residual = 7.70251e-18, No Iterations 3
diagonal:  Solving for rho, Initial residual = 0, Final residual = 0, No Iterations 0
time step continuity errors : sum local = 5.713e-17, global = -5.68827e-18, cumulative = 2.29262e-16
ExecutionTime = 0.11 s  ClockTime = 3 s

Time = 6e-05

Courant Number mean: 0.000460685 max: 0.036645
diagonal:  Solving for rho, Initial residual = 0, Final residual = 0, No Iterations 0
PIMPLE: iteration 1
smoothSolver:  Solving for Ux, Initial residual = 0.0265795, Final residual = 1.95783e-17, No Iterations 1
smoothSolver:  Solving for e, Initial residual = 0.00114511, Final residual = 2.03453e-16, No Iterations 3
smoothSolver:  Solving for p, Initial residual = 0.000366225, Final residual = 8.59194e-18, No Iterations 3
diagonal:  Solving for rho, Initial residual = 0, Final residual = 0, No Iterations 0
time step continuity errors : sum local = 6.43022e-17, global = -8.90338e-18, cumulative = 2.20359e-16
ExecutionTime = 0.11 s  ClockTime = 3 s

Time = 7e-05

Courant Number mean: 0.000494699 max: 0.038425
diagonal:  Solving for rho, Initial residual = 0, Final residual = 0, No Iterations 0
PIMPLE: iteration 1
smoothSolver:  Solving for Ux, Initial residual = 0.0222333, Final residual = 5.12286e-18, No Iterations 1
smoothSolver:  Solving for e, Initial residual = 0.00119993, Final residual = 3.85989e-17, No Iterations 4
smoothSolver:  Solving for p, Initial residual = 0.000389377, Final residual = 9.47294e-18, No Iterations 3
diagonal:  Solving for rho, Initial residual = 0, Final residual = 0, No Iterations 0
time step continuity errors : sum local = 6.57861e-17, global = -3.21511e-17, cumulative = 1.88208e-16
ExecutionTime = 0.11 s  ClockTime = 3 s

Time = 8e-05

Courant Number mean: 0.000514427 max: 0.038825
diagonal:  Solving for rho, Initial residual = 0, Final residual = 0, No Iterations 0
PIMPLE: iteration 1
smoothSolver:  Solving for Ux, Initial residual = 0.0192549, Final residual = 8.14925e-18, No Iterations 1
smoothSolver:  Solving for e, Initial residual = 0.00120983, Final residual = 4.17457e-17, No Iterations 4
smoothSolver:  Solving for p, Initial residual = 0.000403143, Final residual = 9.48254e-18, No Iterations 3
diagonal:  Solving for rho, Initial residual = 0, Final residual = 0, No Iterations 0
time step continuity errors : sum local = 5.81193e-17, global = -2.74521e-17, cumulative = 1.60756e-16
ExecutionTime = 0.11 s  ClockTime = 3 s

Time = 9e-05

Courant Number mean: 0.000523972 max: 0.0383125
diagonal:  Solving for rho, Initial residual = 0, Final residual = 0, No Iterations 0
PIMPLE: iteration 1
smoothSolver:  Solving for Ux, Initial residual = 0.0171076, Final residual = 9.09858e-18, No Iterations 1
smoothSolver:  Solving for e, Initial residual = 0.00122226, Final residual = 4.46336e-17, No Iterations 4
smoothSolver:  Solving for p, Initial residual = 0.000410938, Final residual = 8.15067e-18, No Iterations 3
diagonal:  Solving for rho, Initial residual = 0, Final residual = 0, No Iterations 0
time step continuity errors : sum local = 7.07324e-17, global = -1.8796e-17, cumulative = 1.41959e-16
ExecutionTime = 0.11 s  ClockTime = 3 s

Time = 0.0001

Courant Number mean: 0.000528041 max: 0.0372878
diagonal:  Solving for rho, Initial residual = 0, Final residual = 0, No Iterations 0
PIMPLE: iteration 1
smoothSolver:  Solving for Ux, Initial residual = 0.0154967, Final residual = 3.9692e-18, No Iterations 1
smoothSolver:  Solving for e, Initial residual = 0.00117528, Final residual = 5.60208e-17, No Iterations 2
smoothSolver:  Solving for p, Initial residual = 0.000405369, Final residual = 8.40822e-18, No Iterations 3
diagonal:  Solving for rho, Initial residual = 0, Final residual = 0, No Iterations 0
time step continuity errors : sum local = 6.13344e-17, global = -2.4237e-17, cumulative = 1.17723e-16
ExecutionTime = 0.11 s  ClockTime = 3 s

Time = 0.00011

Courant Number mean: 0.000529669 max: 0.0360233
diagonal:  Solving for rho, Initial residual = 0, Final residual = 0, No Iterations 0
PIMPLE: iteration 1
smoothSolver:  Solving for Ux, Initial residual = 0.0142158, Final residual = 5.83032e-18, No Iterations 1
smoothSolver:  Solving for e, Initial residual = 0.00111143, Final residual = 7.58816e-17, No Iterations 2
smoothSolver:  Solving for p, Initial residual = 0.000399966, Final residual = 1.39905e-17, No Iterations 3
diagonal:  Solving for rho, Initial residual = 0, Final residual = 0, No Iterations 0
time step continuity errors : sum local = 7.49368e-17, global = -2.00326e-17, cumulative = 9.76899e-17
ExecutionTime = 0.11 s  ClockTime = 3 s

Time = 0.00012

Courant Number mean: 0.000530604 max: 0.0346637
diagonal:  Solving for rho, Initial residual = 0, Final residual = 0, No Iterations 0
PIMPLE: iteration 1
smoothSolver:  Solving for Ux, Initial residual = 0.013159, Final residual = 9.79269e-18, No Iterations 1
smoothSolver:  Solving for e, Initial residual = 0.00104172, Final residual = 1.21325e-16, No Iterations 2
smoothSolver:  Solving for p, Initial residual = 0.000392241, Final residual = 1.96915e-17, No Iterations 3
diagonal:  Solving for rho, Initial residual = 0, Final residual = 0, No Iterations 0
time step continuity errors : sum local = 9.20016e-17, global = -5.2431e-17, cumulative = 4.52589e-17
ExecutionTime = 0.11 s  ClockTime = 3 s

Time = 0.00013

Courant Number mean: 0.000532036 max: 0.0332986
diagonal:  Solving for rho, Initial residual = 0, Final residual = 0, No Iterations 0
PIMPLE: iteration 1
smoothSolver:  Solving for Ux, Initial residual = 0.0122817, Final residual = 8.80635e-18, No Iterations 1
smoothSolver:  Solving for e, Initial residual = 0.00097068, Final residual = 2.19595e-16, No Iterations 2
smoothSolver:  Solving for p, Initial residual = 0.000383117, Final residual = 3.30768e-17, No Iterations 3
diagonal:  Solving for rho, Initial residual = 0, Final residual = 0, No Iterations 0
time step continuity errors : sum local = 1.09808e-16, global = -5.83666e-17, cumulative = -1.31078e-17
ExecutionTime = 0.11 s  ClockTime = 3 s

Time = 0.00014

Courant Number mean: 0.000534589 max: 0.0319868
diagonal:  Solving for rho, Initial residual = 0, Final residual = 0, No Iterations 0
PIMPLE: iteration 1
smoothSolver:  Solving for Ux, Initial residual = 0.0115331, Final residual = 4.38259e-18, No Iterations 1
smoothSolver:  Solving for e, Initial residual = 0.000901593, Final residual = 4.23214e-16, No Iterations 2
smoothSolver:  Solving for p, Initial residual = 0.000373341, Final residual = 4.59178e-17, No Iterations 3
diagonal:  Solving for rho, Initial residual = 0, Final residual = 0, No Iterations 0
time step continuity errors : sum local = 1.1797e-16, global = -9.22489e-17, cumulative = -1.05357e-16
ExecutionTime = 0.11 s  ClockTime = 3 s

Time = 0.00015

Courant Number mean: 0.000538346 max: 0.0307634
diagonal:  Solving for rho, Initial residual = 0, Final residual = 0, No Iterations 0
PIMPLE: iteration 1
smoothSolver:  Solving for Ux, Initial residual = 0.0108823, Final residual = 1.39085e-17, No Iterations 1
smoothSolver:  Solving for e, Initial residual = 0.000836714, Final residual = 8.01491e-16, No Iterations 2
smoothSolver:  Solving for p, Initial residual = 0.000363483, Final residual = 6.32149e-17, No Iterations 3
diagonal:  Solving for rho, Initial residual = 0, Final residual = 0, No Iterations 0
time step continuity errors : sum local = 1.70895e-16, global = -1.17475e-16, cumulative = -2.22832e-16
ExecutionTime = 0.12 s  ClockTime = 3 s

Time = 0.00016

Courant Number mean: 0.000543203 max: 0.0296457
diagonal:  Solving for rho, Initial residual = 0, Final residual = 0, No Iterations 0
PIMPLE: iteration 1
smoothSolver:  Solving for Ux, Initial residual = 0.01031, Final residual = 4.29964e-18, No Iterations 1
smoothSolver:  Solving for e, Initial residual = 0.000777239, Final residual = 4.33132e-17, No Iterations 3
smoothSolver:  Solving for p, Initial residual = 0.000353907, Final residual = 7.90615e-17, No Iterations 3
diagonal:  Solving for rho, Initial residual = 0, Final residual = 0, No Iterations 0
time step continuity errors : sum local = 1.91917e-16, global = -1.37013e-16, cumulative = -3.59845e-16
ExecutionTime = 0.12 s  ClockTime = 3 s

Time = 0.00017

Courant Number mean: 0.000549046 max: 0.0286385
diagonal:  Solving for rho, Initial residual = 0, Final residual = 0, No Iterations 0
PIMPLE: iteration 1
smoothSolver:  Solving for Ux, Initial residual = 0.00980215, Final residual = 1.68385e-17, No Iterations 1
smoothSolver:  Solving for e, Initial residual = 0.000723475, Final residual = 3.79199e-17, No Iterations 3
smoothSolver:  Solving for p, Initial residual = 0.000344804, Final residual = 9.59967e-17, No Iterations 3
diagonal:  Solving for rho, Initial residual = 0, Final residual = 0, No Iterations 0
time step continuity errors : sum local = 2.13929e-16, global = -1.90681e-16, cumulative = -5.50526e-16
ExecutionTime = 0.12 s  ClockTime = 3 s

Time = 0.00018

Courant Number mean: 0.000555811 max: 0.0277385
diagonal:  Solving for rho, Initial residual = 0, Final residual = 0, No Iterations 0
PIMPLE: iteration 1
smoothSolver:  Solving for Ux, Initial residual = 0.00934738, Final residual = 1.27085e-17, No Iterations 1
smoothSolver:  Solving for e, Initial residual = 0.000684454, Final residual = 3.83578e-17, No Iterations 3
smoothSolver:  Solving for p, Initial residual = 0.000336244, Final residual = 1.10146e-16, No Iterations 3
diagonal:  Solving for rho, Initial residual = 0, Final residual = 0, No Iterations 0
time step continuity errors : sum local = 2.57951e-16, global = -2.0552e-16, cumulative = -7.56046e-16
ExecutionTime = 0.12 s  ClockTime = 3 s

Time = 0.00019

Courant Number mean: 0.000563459 max: 0.0269388
diagonal:  Solving for rho, Initial residual = 0, Final residual = 0, No Iterations 0
PIMPLE: iteration 1
smoothSolver:  Solving for Ux, Initial residual = 0.00893693, Final residual = 1.10336e-17, No Iterations 1
smoothSolver:  Solving for e, Initial residual = 0.000695826, Final residual = 3.9779e-17, No Iterations 3
smoothSolver:  Solving for p, Initial residual = 0.00032823, Final residual = 1.22409e-16, No Iterations 3
diagonal:  Solving for rho, Initial residual = 0, Final residual = 0, No Iterations 0
time step continuity errors : sum local = 2.69822e-16, global = -2.20359e-16, cumulative = -9.76404e-16
ExecutionTime = 0.12 s  ClockTime = 3 s

Time = 0.0002

Courant Number mean: 0.000571954 max: 0.0262308
diagonal:  Solving for rho, Initial residual = 0, Final residual = 0, No Iterations 0
PIMPLE: iteration 1
smoothSolver:  Solving for Ux, Initial residual = 0.00856394, Final residual = 1.14562e-17, No Iterations 1
smoothSolver:  Solving for e, Initial residual = 0.000705217, Final residual = 3.58667e-17, No Iterations 3
smoothSolver:  Solving for p, Initial residual = 0.00032074, Final residual = 1.30781e-16, No Iterations 3
diagonal:  Solving for rho, Initial residual = 0, Final residual = 0, No Iterations 0
time step continuity errors : sum local = 2.84661e-16, global = -2.20853e-16, cumulative = -1.19726e-15
ExecutionTime = 0.12 s  ClockTime = 3 s

Time = 0.00021

Courant Number mean: 0.000581252 max: 0.0256061
diagonal:  Solving for rho, Initial residual = 0, Final residual = 0, No Iterations 0
PIMPLE: iteration 1
smoothSolver:  Solving for Ux, Initial residual = 0.00822304, Final residual = 8.78783e-18, No Iterations 1
smoothSolver:  Solving for e, Initial residual = 0.000712834, Final residual = 3.96954e-17, No Iterations 3
smoothSolver:  Solving for p, Initial residual = 0.000314107, Final residual = 1.29587e-16, No Iterations 3
diagonal:  Solving for rho, Initial residual = 0, Final residual = 0, No Iterations 0
time step continuity errors : sum local = 2.72295e-16, global = -2.2481e-16, cumulative = -1.42207e-15
ExecutionTime = 0.12 s  ClockTime = 3 s

Time = 0.00022

Courant Number mean: 0.000591572 max: 0.0250753
diagonal:  Solving for rho, Initial residual = 0, Final residual = 0, No Iterations 0
PIMPLE: iteration 1
smoothSolver:  Solving for Ux, Initial residual = 0.00790751, Final residual = 8.97174e-18, No Iterations 1
smoothSolver:  Solving for e, Initial residual = 0.000719083, Final residual = 3.96847e-17, No Iterations 3
smoothSolver:  Solving for p, Initial residual = 0.000314299, Final residual = 1.33797e-16, No Iterations 3
diagonal:  Solving for rho, Initial residual = 0, Final residual = 0, No Iterations 0
time step continuity errors : sum local = 2.8293e-16, global = -2.3594e-16, cumulative = -1.65801e-15
ExecutionTime = 0.12 s  ClockTime = 3 s

Time = 0.00023

Courant Number mean: 0.000607164 max: 0.0249255
diagonal:  Solving for rho, Initial residual = 0, Final residual = 0, No Iterations 0
PIMPLE: iteration 1
smoothSolver:  Solving for Ux, Initial residual = 0.00757628, Final residual = 9.86028e-18, No Iterations 1
smoothSolver:  Solving for e, Initial residual = 0.000726485, Final residual = 3.77879e-17, No Iterations 3
smoothSolver:  Solving for p, Initial residual = 0.000317241, Final residual = 1.39566e-16, No Iterations 3
diagonal:  Solving for rho, Initial residual = 0, Final residual = 0, No Iterations 0
time step continuity errors : sum local = 2.96285e-16, global = -2.45338e-16, cumulative = -1.90335e-15
ExecutionTime = 0.12 s  ClockTime = 3 s

Time = 0.00024

Courant Number mean: 0.000624373 max: 0.024885
diagonal:  Solving for rho, Initial residual = 0, Final residual = 0, No Iterations 0
PIMPLE: iteration 1
smoothSolver:  Solving for Ux, Initial residual = 0.00726243, Final residual = 1.13174e-17, No Iterations 1
smoothSolver:  Solving for e, Initial residual = 0.000733973, Final residual = 3.78684e-17, No Iterations 3
smoothSolver:  Solving for p, Initial residual = 0.000320776, Final residual = 1.51983e-16, No Iterations 3
diagonal:  Solving for rho, Initial residual = 0, Final residual = 0, No Iterations 0
time step continuity errors : sum local = 3.18543e-16, global = -2.70069e-16, cumulative = -2.17341e-15
ExecutionTime = 0.12 s  ClockTime = 3 s

Time = 0.00025

Courant Number mean: 0.000642157 max: 0.0248752
diagonal:  Solving for rho, Initial residual = 0, Final residual = 0, No Iterations 0
PIMPLE: iteration 1
smoothSolver:  Solving for Ux, Initial residual = 0.00697261, Final residual = 2.39538e-17, No Iterations 1
smoothSolver:  Solving for e, Initial residual = 0.000741262, Final residual = 4.19078e-17, No Iterations 3
smoothSolver:  Solving for p, Initial residual = 0.000324227, Final residual = 1.5949e-16, No Iterations 3
diagonal:  Solving for rho, Initial residual = 0, Final residual = 0, No Iterations 0
time step continuity errors : sum local = 3.2349e-16, global = -2.80457e-16, cumulative = -2.45387e-15
ExecutionTime = 0.13 s  ClockTime = 3 s

Time = 0.00026

Courant Number mean: 0.000660178 max: 0.0248724
diagonal:  Solving for rho, Initial residual = 0, Final residual = 0, No Iterations 0
PIMPLE: iteration 1
smoothSolver:  Solving for Ux, Initial residual = 0.00670662, Final residual = 1.38369e-17, No Iterations 1
smoothSolver:  Solving for e, Initial residual = 0.000748292, Final residual = 4.05177e-17, No Iterations 3
smoothSolver:  Solving for p, Initial residual = 0.000327374, Final residual = 1.6922e-16, No Iterations 3
diagonal:  Solving for rho, Initial residual = 0, Final residual = 0, No Iterations 0
time step continuity errors : sum local = 3.46243e-16, global = -3.13102e-16, cumulative = -2.76697e-15
ExecutionTime = 0.13 s  ClockTime = 3 s

Time = 0.00027

Courant Number mean: 0.000678317 max: 0.0248702
diagonal:  Solving for rho, Initial residual = 0, Final residual = 0, No Iterations 0
PIMPLE: iteration 1
smoothSolver:  Solving for Ux, Initial residual = 0.00646246, Final residual = 9.19944e-18, No Iterations 1
smoothSolver:  Solving for e, Initial residual = 0.000755073, Final residual = 3.57627e-17, No Iterations 3
smoothSolver:  Solving for p, Initial residual = 0.000330153, Final residual = 1.82e-16, No Iterations 3
diagonal:  Solving for rho, Initial residual = 0, Final residual = 0, No Iterations 0
time step continuity errors : sum local = 3.70974e-16, global = -3.2349e-16, cumulative = -3.09046e-15
ExecutionTime = 0.13 s  ClockTime = 3 s

Time = 0.00028

Courant Number mean: 0.00069653 max: 0.0248676
diagonal:  Solving for rho, Initial residual = 0, Final residual = 0, No Iterations 0
PIMPLE: iteration 1
smoothSolver:  Solving for Ux, Initial residual = 0.00623782, Final residual = 1.33414e-17, No Iterations 1
smoothSolver:  Solving for e, Initial residual = 0.000761638, Final residual = 4.61518e-17, No Iterations 3
smoothSolver:  Solving for p, Initial residual = 0.000332554, Final residual = 1.87864e-16, No Iterations 3
diagonal:  Solving for rho, Initial residual = 0, Final residual = 0, No Iterations 0
time step continuity errors : sum local = 3.77157e-16, global = -3.4006e-16, cumulative = -3.43052e-15
ExecutionTime = 0.13 s  ClockTime = 3 s

Time = 0.00029

Courant Number mean: 0.000714803 max: 0.0248656
diagonal:  Solving for rho, Initial residual = 0, Final residual = 0, No Iterations 0
PIMPLE: iteration 1
smoothSolver:  Solving for Ux, Initial residual = 0.00603056, Final residual = 8.97851e-18, No Iterations 1
smoothSolver:  Solving for e, Initial residual = 0.000768016, Final residual = 4.34395e-17, No Iterations 3
smoothSolver:  Solving for p, Initial residual = 0.000334606, Final residual = 1.98751e-16, No Iterations 3
diagonal:  Solving for rho, Initial residual = 0, Final residual = 0, No Iterations 0
time step continuity errors : sum local = 3.96201e-16, global = -3.61082e-16, cumulative = -3.7916e-15
ExecutionTime = 0.13 s  ClockTime = 3 s

Time = 0.0003

Courant Number mean: 0.000733138 max: 0.0248656
diagonal:  Solving for rho, Initial residual = 0, Final residual = 0, No Iterations 0
PIMPLE: iteration 1
smoothSolver:  Solving for Ux, Initial residual = 0.00583547, Final residual = 1.63145e-17, No Iterations 1
smoothSolver:  Solving for e, Initial residual = 0.000774259, Final residual = 4.37746e-17, No Iterations 3
smoothSolver:  Solving for p, Initial residual = 0.000336319, Final residual = 2.05727e-16, No Iterations 3
diagonal:  Solving for rho, Initial residual = 0, Final residual = 0, No Iterations 0
time step continuity errors : sum local = 4.05846e-16, global = -3.69243e-16, cumulative = -4.16085e-15
ExecutionTime = 0.13 s  ClockTime = 3 s

Time = 0.00031

Courant Number mean: 0.000751543 max: 0.0248691
diagonal:  Solving for rho, Initial residual = 0, Final residual = 0, No Iterations 0
PIMPLE: iteration 1
smoothSolver:  Solving for Ux, Initial residual = 0.00565178, Final residual = 1.52247e-17, No Iterations 1
smoothSolver:  Solving for e, Initial residual = 0.000780404, Final residual = 4.28461e-17, No Iterations 3
smoothSolver:  Solving for p, Initial residual = 0.000337722, Final residual = 2.16136e-16, No Iterations 3
diagonal:  Solving for rho, Initial residual = 0, Final residual = 0, No Iterations 0
time step continuity errors : sum local = 4.36018e-16, global = -3.75179e-16, cumulative = -4.53603e-15
ExecutionTime = 0.13 s  ClockTime = 3 s

Time = 0.00032

Courant Number mean: 0.000770034 max: 0.0248775
diagonal:  Solving for rho, Initial residual = 0, Final residual = 0, No Iterations 0
PIMPLE: iteration 1
smoothSolver:  Solving for Ux, Initial residual = 0.00547725, Final residual = 1.49723e-17, No Iterations 1
smoothSolver:  Solving for e, Initial residual = 0.000786488, Final residual = 3.9236e-17, No Iterations 3
smoothSolver:  Solving for p, Initial residual = 0.000338817, Final residual = 2.28073e-16, No Iterations 3
diagonal:  Solving for rho, Initial residual = 0, Final residual = 0, No Iterations 0
time step continuity errors : sum local = 4.56546e-16, global = -3.96201e-16, cumulative = -4.93223e-15
ExecutionTime = 0.13 s  ClockTime = 3 s

Time = 0.00033

Courant Number mean: 0.00078891 max: 0.0248924
diagonal:  Solving for rho, Initial residual = 0, Final residual = 0, No Iterations 0
PIMPLE: iteration 1
smoothSolver:  Solving for Ux, Initial residual = 0.00531195, Final residual = 1.87733e-17, No Iterations 1
smoothSolver:  Solving for e, Initial residual = 0.000792279, Final residual = 4.13489e-17, No Iterations 3
smoothSolver:  Solving for p, Initial residual = 0.000339574, Final residual = 2.39394e-16, No Iterations 3
diagonal:  Solving for rho, Initial residual = 0, Final residual = 0, No Iterations 0
time step continuity errors : sum local = 4.7089e-16, global = -4.23405e-16, cumulative = -5.35563e-15
ExecutionTime = 0.13 s  ClockTime = 3 s

Time = 0.00034

Courant Number mean: 0.000808127 max: 0.0249149
diagonal:  Solving for rho, Initial residual = 0, Final residual = 0, No Iterations 0
PIMPLE: iteration 1
smoothSolver:  Solving for Ux, Initial residual = 0.00515564, Final residual = 1.43905e-17, No Iterations 1
smoothSolver:  Solving for e, Initial residual = 0.000797831, Final residual = 4.36971e-17, No Iterations 3
smoothSolver:  Solving for p, Initial residual = 0.000340027, Final residual = 2.54432e-16, No Iterations 3
diagonal:  Solving for rho, Initial residual = 0, Final residual = 0, No Iterations 0
time step continuity errors : sum local = 4.98837e-16, global = -4.24147e-16, cumulative = -5.77978e-15
ExecutionTime = 0.14 s  ClockTime = 3 s

Time = 0.00035

Courant Number mean: 0.000827603 max: 0.0249461
diagonal:  Solving for rho, Initial residual = 0, Final residual = 0, No Iterations 0
PIMPLE: iteration 1
smoothSolver:  Solving for Ux, Initial residual = 0.00500807, Final residual = 5.29742e-18, No Iterations 1
smoothSolver:  Solving for e, Initial residual = 0.000803232, Final residual = 4.33291e-17, No Iterations 3
smoothSolver:  Solving for p, Initial residual = 0.000340209, Final residual = 2.66695e-16, No Iterations 3
diagonal:  Solving for rho, Initial residual = 0, Final residual = 0, No Iterations 0
time step continuity errors : sum local = 5.1516e-16, global = -4.69159e-16, cumulative = -6.24894e-15
ExecutionTime = 0.14 s  ClockTime = 3 s

Time = 0.00036

Courant Number mean: 0.00084729 max: 0.0249868
diagonal:  Solving for rho, Initial residual = 0, Final residual = 0, No Iterations 0
PIMPLE: iteration 1
smoothSolver:  Solving for Ux, Initial residual = 0.00492345, Final residual = 1.63208e-17, No Iterations 1
smoothSolver:  Solving for e, Initial residual = 0.000808528, Final residual = 4.45135e-17, No Iterations 3
smoothSolver:  Solving for p, Initial residual = 0.000340146, Final residual = 2.82289e-16, No Iterations 3
diagonal:  Solving for rho, Initial residual = 0, Final residual = 0, No Iterations 0
time step continuity errors : sum local = 5.4459e-16, global = -5.01063e-16, cumulative = -6.75e-15
ExecutionTime = 0.14 s  ClockTime = 3 s

Time = 0.00037

Courant Number mean: 0.000867164 max: 0.0250378
diagonal:  Solving for rho, Initial residual = 0, Final residual = 0, No Iterations 0
PIMPLE: iteration 1
smoothSolver:  Solving for Ux, Initial residual = 0.00484398, Final residual = 8.78659e-18, No Iterations 1
smoothSolver:  Solving for e, Initial residual = 0.000817693, Final residual = 2.46442e-16, No Iterations 3
smoothSolver:  Solving for p, Initial residual = 0.000339844, Final residual = 3.04902e-16, No Iterations 3
diagonal:  Solving for rho, Initial residual = 0, Final residual = 0, No Iterations 0
time step continuity errors : sum local = 5.84161e-16, global = -5.40139e-16, cumulative = -7.29014e-15
ExecutionTime = 0.14 s  ClockTime = 3 s

Time = 0.00038

Courant Number mean: 0.000887207 max: 0.0250992
diagonal:  Solving for rho, Initial residual = 0, Final residual = 0, No Iterations 0
PIMPLE: iteration 1
smoothSolver:  Solving for Ux, Initial residual = 0.00476659, Final residual = 1.18924e-17, No Iterations 1
smoothSolver:  Solving for e, Initial residual = 0.000832779, Final residual = 2.73022e-16, No Iterations 3
smoothSolver:  Solving for p, Initial residual = 0.0003393, Final residual = 3.30496e-16, No Iterations 3
diagonal:  Solving for rho, Initial residual = 0, Final residual = 0, No Iterations 0
time step continuity errors : sum local = 6.29172e-16, global = -5.8515e-16, cumulative = -7.87529e-15
ExecutionTime = 0.14 s  ClockTime = 3 s

Time = 0.00039

Courant Number mean: 0.000907409 max: 0.0252299
diagonal:  Solving for rho, Initial residual = 0, Final residual = 0, No Iterations 0
PIMPLE: iteration 1
smoothSolver:  Solving for Ux, Initial residual = 0.00469154, Final residual = 1.37691e-17, No Iterations 1
smoothSolver:  Solving for e, Initial residual = 0.000848059, Final residual = 3.15576e-16, No Iterations 3
smoothSolver:  Solving for p, Initial residual = 0.000338553, Final residual = 3.63794e-16, No Iterations 3
diagonal:  Solving for rho, Initial residual = 0, Final residual = 0, No Iterations 0
time step continuity errors : sum local = 6.84324e-16, global = -6.19527e-16, cumulative = -8.49482e-15
ExecutionTime = 0.14 s  ClockTime = 3 s

Time = 0.0004

Courant Number mean: 0.000927764 max: 0.0256609
diagonal:  Solving for rho, Initial residual = 0, Final residual = 0, No Iterations 0
PIMPLE: iteration 1
smoothSolver:  Solving for Ux, Initial residual = 0.00461884, Final residual = 6.22389e-18, No Iterations 1
smoothSolver:  Solving for e, Initial residual = 0.000863326, Final residual = 3.56075e-16, No Iterations 3
smoothSolver:  Solving for p, Initial residual = 0.000337614, Final residual = 3.96775e-16, No Iterations 3
diagonal:  Solving for rho, Initial residual = 0, Final residual = 0, No Iterations 0
time step continuity errors : sum local = 7.32303e-16, global = -6.98174e-16, cumulative = -9.19299e-15
ExecutionTime = 0.14 s  ClockTime = 3 s

Time = 0.00041

Courant Number mean: 0.000948271 max: 0.026071
diagonal:  Solving for rho, Initial residual = 0, Final residual = 0, No Iterations 0
PIMPLE: iteration 1
smoothSolver:  Solving for Ux, Initial residual = 0.00454845, Final residual = 1.82079e-17, No Iterations 1
smoothSolver:  Solving for e, Initial residual = 0.000878439, Final residual = 4.03972e-16, No Iterations 3
smoothSolver:  Solving for p, Initial residual = 0.000336492, Final residual = 4.42525e-16, No Iterations 3
diagonal:  Solving for rho, Initial residual = 0, Final residual = 0, No Iterations 0
time step continuity errors : sum local = 8.17133e-16, global = -7.64702e-16, cumulative = -9.95769e-15
ExecutionTime = 0.15 s  ClockTime = 3 s

Time = 0.00042

Courant Number mean: 0.000968937 max: 0.0264609
diagonal:  Solving for rho, Initial residual = 0, Final residual = 0, No Iterations 0
PIMPLE: iteration 1
smoothSolver:  Solving for Ux, Initial residual = 0.00448032, Final residual = 1.13814e-17, No Iterations 1
smoothSolver:  Solving for e, Initial residual = 0.000893454, Final residual = 4.51824e-16, No Iterations 3
smoothSolver:  Solving for p, Initial residual = 0.000335195, Final residual = 4.92954e-16, No Iterations 3
diagonal:  Solving for rho, Initial residual = 0, Final residual = 0, No Iterations 0
time step continuity errors : sum local = 9.10124e-16, global = -8.70058e-16, cumulative = -1.08278e-14
ExecutionTime = 0.15 s  ClockTime = 3 s

Time = 0.00043

Courant Number mean: 0.000989775 max: 0.0268314
diagonal:  Solving for rho, Initial residual = 0, Final residual = 0, No Iterations 0
PIMPLE: iteration 1
smoothSolver:  Solving for Ux, Initial residual = 0.00441438, Final residual = 1.29235e-17, No Iterations 1
smoothSolver:  Solving for e, Initial residual = 0.00090838, Final residual = 5.0232e-16, No Iterations 3
smoothSolver:  Solving for p, Initial residual = 0.00033373, Final residual = 5.4472e-16, No Iterations 3
diagonal:  Solving for rho, Initial residual = 0, Final residual = 0, No Iterations 0
time step continuity errors : sum local = 1.00114e-15, global = -9.45737e-16, cumulative = -1.17735e-14
ExecutionTime = 0.15 s  ClockTime = 3 s

Time = 0.00044

Courant Number mean: 0.00101081 max: 0.0271839
diagonal:  Solving for rho, Initial residual = 0, Final residual = 0, No Iterations 0
PIMPLE: iteration 1
smoothSolver:  Solving for Ux, Initial residual = 0.00435053, Final residual = 1.09021e-17, No Iterations 1
smoothSolver:  Solving for e, Initial residual = 0.000923174, Final residual = 5.67161e-16, No Iterations 3
smoothSolver:  Solving for p, Initial residual = 0.000332104, Final residual = 6.09079e-16, No Iterations 3
diagonal:  Solving for rho, Initial residual = 0, Final residual = 0, No Iterations 0
time step continuity errors : sum local = 1.1102e-15, global = -1.06618e-15, cumulative = -1.28397e-14
ExecutionTime = 0.15 s  ClockTime = 3 s

Time = 0.00045

Courant Number mean: 0.00103195 max: 0.0275135
diagonal:  Solving for rho, Initial residual = 0, Final residual = 0, No Iterations 0
PIMPLE: iteration 1
smoothSolver:  Solving for Ux, Initial residual = 0.00428872, Final residual = 1.31961e-17, No Iterations 1
smoothSolver:  Solving for e, Initial residual = 0.000937538, Final residual = 6.3417e-16, No Iterations 3
smoothSolver:  Solving for p, Initial residual = 0.000330294, Final residual = 6.99963e-16, No Iterations 3
diagonal:  Solving for rho, Initial residual = 0, Final residual = 0, No Iterations 0
time step continuity errors : sum local = 1.26428e-15, global = -1.16288e-15, cumulative = -1.40025e-14
ExecutionTime = 0.15 s  ClockTime = 3 s

Time = 0.00046

Courant Number mean: 0.00105305 max: 0.0278105
diagonal:  Solving for rho, Initial residual = 0, Final residual = 0, No Iterations 0
PIMPLE: iteration 1
smoothSolver:  Solving for Ux, Initial residual = 0.00422898, Final residual = 5.44422e-18, No Iterations 1
smoothSolver:  Solving for e, Initial residual = 0.000950929, Final residual = 6.90582e-16, No Iterations 3
smoothSolver:  Solving for p, Initial residual = 0.00033735, Final residual = 7.9284e-16, No Iterations 3
diagonal:  Solving for rho, Initial residual = 0, Final residual = 0, No Iterations 0
time step continuity errors : sum local = 1.41341e-15, global = -1.27937e-15, cumulative = -1.52819e-14
ExecutionTime = 0.15 s  ClockTime = 3 s

Time = 0.00047

Courant Number mean: 0.00107395 max: 0.0280687
diagonal:  Solving for rho, Initial residual = 0, Final residual = 0, No Iterations 0
PIMPLE: iteration 1
smoothSolver:  Solving for Ux, Initial residual = 0.00417129, Final residual = 1.88728e-17, No Iterations 1
smoothSolver:  Solving for e, Initial residual = 0.000962883, Final residual = 7.50365e-16, No Iterations 3
smoothSolver:  Solving for p, Initial residual = 0.000344214, Final residual = 8.74675e-16, No Iterations 3
diagonal:  Solving for rho, Initial residual = 0, Final residual = 0, No Iterations 0
time step continuity errors : sum local = 1.56155e-15, global = -1.37359e-15, cumulative = -1.66555e-14
ExecutionTime = 0.16 s  ClockTime = 3 s

Time = 0.00048

Courant Number mean: 0.00109457 max: 0.0282853
diagonal:  Solving for rho, Initial residual = 0, Final residual = 0, No Iterations 0
PIMPLE: iteration 1
smoothSolver:  Solving for Ux, Initial residual = 0.00411559, Final residual = 2.40038e-17, No Iterations 1
smoothSolver:  Solving for e, Initial residual = 0.000973054, Final residual = 7.92883e-16, No Iterations 3
smoothSolver:  Solving for p, Initial residual = 0.000350457, Final residual = 9.49391e-16, No Iterations 3
diagonal:  Solving for rho, Initial residual = 0, Final residual = 0, No Iterations 0
time step continuity errors : sum local = 1.69436e-15, global = -1.48316e-15, cumulative = -1.81387e-14
ExecutionTime = 0.16 s  ClockTime = 3 s

Time = 0.00049

Courant Number mean: 0.00111487 max: 0.0284608
diagonal:  Solving for rho, Initial residual = 0, Final residual = 0, No Iterations 0
PIMPLE: iteration 1
smoothSolver:  Solving for Ux, Initial residual = 0.00406175, Final residual = 8.16371e-18, No Iterations 1
smoothSolver:  Solving for e, Initial residual = 0.000981246, Final residual = 8.09914e-16, No Iterations 3
smoothSolver:  Solving for p, Initial residual = 0.000356025, Final residual = 1.20097e-17, No Iterations 4
diagonal:  Solving for rho, Initial residual = 0, Final residual = 0, No Iterations 0
time step continuity errors : sum local = 6.82593e-17, global = -9.39802e-18, cumulative = -1.81481e-14
ExecutionTime = 0.16 s  ClockTime = 3 s

Time = 0.0005

Courant Number mean: 0.00113485 max: 0.0285983
diagonal:  Solving for rho, Initial residual = 0, Final residual = 0, No Iterations 0
PIMPLE: iteration 1
smoothSolver:  Solving for Ux, Initial residual = 0.0040096, Final residual = 1.1774e-17, No Iterations 1
smoothSolver:  Solving for e, Initial residual = 0.000987382, Final residual = 8.08249e-16, No Iterations 3
smoothSolver:  Solving for p, Initial residual = 0.000360909, Final residual = 1.27481e-17, No Iterations 4
diagonal:  Solving for rho, Initial residual = 0, Final residual = 0, No Iterations 0
time step continuity errors : sum local = 9.22489e-17, global = -6.1829e-18, cumulative = -1.81542e-14
ExecutionTime = 0.16 s  ClockTime = 3 s

Time = 0.00051

Courant Number mean: 0.00115455 max: 0.0287025
diagonal:  Solving for rho, Initial residual = 0, Final residual = 0, No Iterations 0
PIMPLE: iteration 1
smoothSolver:  Solving for Ux, Initial residual = 0.00395892, Final residual = 1.54719e-17, No Iterations 1
smoothSolver:  Solving for e, Initial residual = 0.000991484, Final residual = 7.85756e-16, No Iterations 3
smoothSolver:  Solving for p, Initial residual = 0.000365132, Final residual = 1.38257e-17, No Iterations 4
diagonal:  Solving for rho, Initial residual = 0, Final residual = 0, No Iterations 0
time step continuity errors : sum local = 7.83992e-17, global = -2.15165e-17, cumulative = -1.81758e-14
ExecutionTime = 0.16 s  ClockTime = 3 s

Time = 0.00052

Courant Number mean: 0.00117401 max: 0.028779
diagonal:  Solving for rho, Initial residual = 0, Final residual = 0, No Iterations 0
PIMPLE: iteration 1
smoothSolver:  Solving for Ux, Initial residual = 0.00390947, Final residual = 1.5766e-17, No Iterations 1
smoothSolver:  Solving for e, Initial residual = 0.000993647, Final residual = 7.51213e-16, No Iterations 3
smoothSolver:  Solving for p, Initial residual = 0.000368734, Final residual = 1.02915e-17, No Iterations 4
diagonal:  Solving for rho, Initial residual = 0, Final residual = 0, No Iterations 0
time step continuity errors : sum local = 7.02378e-17, global = 5.44096e-18, cumulative = -1.81703e-14
ExecutionTime = 0.16 s  ClockTime = 3 s

Time = 0.00053

Courant Number mean: 0.00119329 max: 0.0288334
diagonal:  Solving for rho, Initial residual = 0, Final residual = 0, No Iterations 0
PIMPLE: iteration 1
smoothSolver:  Solving for Ux, Initial residual = 0.00386052, Final residual = 1.88473e-17, No Iterations 1
smoothSolver:  Solving for e, Initial residual = 0.000994001, Final residual = 6.94645e-16, No Iterations 3
smoothSolver:  Solving for p, Initial residual = 0.000371766, Final residual = 1.02651e-17, No Iterations 4
diagonal:  Solving for rho, Initial residual = 0, Final residual = 0, No Iterations 0
time step continuity errors : sum local = 5.88613e-17, global = -2.22585e-17, cumulative = -1.81926e-14
ExecutionTime = 0.16 s  ClockTime = 3 s

Time = 0.00054

Courant Number mean: 0.00121245 max: 0.028871
diagonal:  Solving for rho, Initial residual = 0, Final residual = 0, No Iterations 0
PIMPLE: iteration 1
smoothSolver:  Solving for Ux, Initial residual = 0.00381189, Final residual = 1.34834e-17, No Iterations 1
smoothSolver:  Solving for e, Initial residual = 0.000992103, Final residual = 6.13845e-16, No Iterations 3
smoothSolver:  Solving for p, Initial residual = 0.000374281, Final residual = 1.45871e-17, No Iterations 4
diagonal:  Solving for rho, Initial residual = 0, Final residual = 0, No Iterations 0
time step continuity errors : sum local = 7.07324e-17, global = -2.96779e-17, cumulative = -1.82223e-14
ExecutionTime = 0.16 s  ClockTime = 3 s

Time = 0.00055

Courant Number mean: 0.00123156 max: 0.0288965
diagonal:  Solving for rho, Initial residual = 0, Final residual = 0, No Iterations 0
PIMPLE: iteration 1
smoothSolver:  Solving for Ux, Initial residual = 0.00376377, Final residual = 1.45237e-17, No Iterations 1
smoothSolver:  Solving for e, Initial residual = 0.000988134, Final residual = 5.26604e-16, No Iterations 3
smoothSolver:  Solving for p, Initial residual = 0.000376332, Final residual = 1.37466e-17, No Iterations 4
diagonal:  Solving for rho, Initial residual = 0, Final residual = 0, No Iterations 0
time step continuity errors : sum local = 7.6668e-17, global = -1.97853e-18, cumulative = -1.82242e-14
ExecutionTime = 0.16 s  ClockTime = 3 s

Time = 0.00056

Courant Number mean: 0.0012507 max: 0.028914
diagonal:  Solving for rho, Initial residual = 0, Final residual = 0, No Iterations 0
PIMPLE: iteration 1
smoothSolver:  Solving for Ux, Initial residual = 0.00371592, Final residual = 1.11843e-17, No Iterations 1
smoothSolver:  Solving for e, Initial residual = 0.000982842, Final residual = 4.35231e-16, No Iterations 3
smoothSolver:  Solving for p, Initial residual = 0.000377962, Final residual = 1.49463e-17, No Iterations 4
diagonal:  Solving for rho, Initial residual = 0, Final residual = 0, No Iterations 0
time step continuity errors : sum local = 7.88939e-17, global = -4.87213e-17, cumulative = -1.8273e-14
ExecutionTime = 0.16 s  ClockTime = 3 s

Time = 0.00057

Courant Number mean: 0.00126999 max: 0.0289268
diagonal:  Solving for rho, Initial residual = 0, Final residual = 0, No Iterations 0
PIMPLE: iteration 1
smoothSolver:  Solving for Ux, Initial residual = 0.0036681, Final residual = 1.41331e-17, No Iterations 1
smoothSolver:  Solving for e, Initial residual = 0.000976363, Final residual = 3.21591e-16, No Iterations 3
smoothSolver:  Solving for p, Initial residual = 0.000379214, Final residual = 1.83951e-17, No Iterations 4
diagonal:  Solving for rho, Initial residual = 0, Final residual = 0, No Iterations 0
time step continuity errors : sum local = 8.48295e-17, global = -2.00326e-17, cumulative = -1.8293e-14
ExecutionTime = 0.16 s  ClockTime = 3 s

Time = 0.00058

Courant Number mean: 0.00128988 max: 0.0289566
diagonal:  Solving for rho, Initial residual = 0, Final residual = 0, No Iterations 0
PIMPLE: iteration 1
smoothSolver:  Solving for Ux, Initial residual = 0.00363155, Final residual = 1.06198e-17, No Iterations 1
smoothSolver:  Solving for e, Initial residual = 0.000968871, Final residual = 1.03816e-16, No Iterations 3
smoothSolver:  Solving for p, Initial residual = 0.000380121, Final residual = 1.07928e-17, No Iterations 4
diagonal:  Solving for rho, Initial residual = 0, Final residual = 0, No Iterations 0
time step continuity errors : sum local = 8.77972e-17, global = -2.49789e-17, cumulative = -1.8318e-14
ExecutionTime = 0.16 s  ClockTime = 3 s

Time = 0.00059

Courant Number mean: 0.00131788 max: 0.0293142
diagonal:  Solving for rho, Initial residual = 0, Final residual = 0, No Iterations 0
PIMPLE: iteration 1
smoothSolver:  Solving for Ux, Initial residual = 0.0036461, Final residual = 1.28682e-17, No Iterations 1
smoothSolver:  Solving for e, Initial residual = 0.000993638, Final residual = 3.27569e-16, No Iterations 3
smoothSolver:  Solving for p, Initial residual = 0.000380535, Final residual = 9.42072e-16, No Iterations 3
diagonal:  Solving for rho, Initial residual = 0, Final residual = 0, No Iterations 0
time step continuity errors : sum local = 1.68126e-15, global = -1.27566e-15, cumulative = -1.95936e-14
ExecutionTime = 0.16 s  ClockTime = 3 s

Time = 0.0006

Courant Number mean: 0.00135087 max: 0.0298904
diagonal:  Solving for rho, Initial residual = 0, Final residual = 0, No Iterations 0
PIMPLE: iteration 1
smoothSolver:  Solving for Ux, Initial residual = 0.00365849, Final residual = 1.48753e-17, No Iterations 1
smoothSolver:  Solving for e, Initial residual = 0.00104306, Final residual = 8.09144e-16, No Iterations 3
smoothSolver:  Solving for p, Initial residual = 0.000377972, Final residual = 8.06443e-16, No Iterations 3
diagonal:  Solving for rho, Initial residual = 0, Final residual = 0, No Iterations 0
time step continuity errors : sum local = 1.43468e-15, global = -1.06667e-15, cumulative = -2.06603e-14
ExecutionTime = 0.17 s  ClockTime = 3 s

Time = 0.00061

Courant Number mean: 0.00138785 max: 0.0306599
diagonal:  Solving for rho, Initial residual = 0, Final residual = 0, No Iterations 0
PIMPLE: iteration 1
smoothSolver:  Solving for Ux, Initial residual = 0.00366582, Final residual = 1.13477e-17, No Iterations 1
smoothSolver:  Solving for e, Initial residual = 0.00110232, Final residual = 4.70609e-17, No Iterations 4
smoothSolver:  Solving for p, Initial residual = 0.000375005, Final residual = 6.79298e-16, No Iterations 3
diagonal:  Solving for rho, Initial residual = 0, Final residual = 0, No Iterations 0
time step continuity errors : sum local = 1.2121e-15, global = -8.39638e-16, cumulative = -2.14999e-14
ExecutionTime = 0.17 s  ClockTime = 3 s

Time = 0.00062

Courant Number mean: 0.00142854 max: 0.0316272
diagonal:  Solving for rho, Initial residual = 0, Final residual = 0, No Iterations 0
PIMPLE: iteration 1
smoothSolver:  Solving for Ux, Initial residual = 0.00366596, Final residual = 9.15188e-18, No Iterations 1
smoothSolver:  Solving for e, Initial residual = 0.00116538, Final residual = 4.83013e-17, No Iterations 4
smoothSolver:  Solving for p, Initial residual = 0.000371527, Final residual = 6.00758e-16, No Iterations 3
diagonal:  Solving for rho, Initial residual = 0, Final residual = 0, No Iterations 0
time step continuity errors : sum local = 1.07855e-15, global = -7.48131e-16, cumulative = -2.22481e-14
ExecutionTime = 0.17 s  ClockTime = 3 s

Time = 0.00063

Courant Number mean: 0.00146917 max: 0.0326499
diagonal:  Solving for rho, Initial residual = 0, Final residual = 0, No Iterations 0
PIMPLE: iteration 1
smoothSolver:  Solving for Ux, Initial residual = 0.00365703, Final residual = 1.53831e-17, No Iterations 1
smoothSolver:  Solving for e, Initial residual = 0.00122176, Final residual = 4.2549e-17, No Iterations 4
smoothSolver:  Solving for p, Initial residual = 0.000385581, Final residual = 8.87719e-16, No Iterations 3
diagonal:  Solving for rho, Initial residual = 0, Final residual = 0, No Iterations 0
time step continuity errors : sum local = 1.58085e-15, global = -7.54314e-16, cumulative = -2.30024e-14
ExecutionTime = 0.17 s  ClockTime = 3 s

Time = 0.00064

Courant Number mean: 0.00150427 max: 0.0334927
diagonal:  Solving for rho, Initial residual = 0, Final residual = 0, No Iterations 0
PIMPLE: iteration 1
smoothSolver:  Solving for Ux, Initial residual = 0.00363773, Final residual = 7.966e-18, No Iterations 1
smoothSolver:  Solving for e, Initial residual = 0.00125697, Final residual = 4.77529e-17, No Iterations 4
smoothSolver:  Solving for p, Initial residual = 0.000399153, Final residual = 1.6657e-17, No Iterations 4
diagonal:  Solving for rho, Initial residual = 0, Final residual = 0, No Iterations 0
time step continuity errors : sum local = 7.32056e-17, global = -4.05599e-17, cumulative = -2.30429e-14
ExecutionTime = 0.17 s  ClockTime = 3 s

Time = 0.00065

Courant Number mean: 0.00153106 max: 0.0340119
diagonal:  Solving for rho, Initial residual = 0, Final residual = 0, No Iterations 0
PIMPLE: iteration 1
smoothSolver:  Solving for Ux, Initial residual = 0.00360995, Final residual = 1.07397e-17, No Iterations 1
smoothSolver:  Solving for e, Initial residual = 0.0012648, Final residual = 4.46176e-17, No Iterations 4
smoothSolver:  Solving for p, Initial residual = 0.000404327, Final residual = 1.38865e-17, No Iterations 4
diagonal:  Solving for rho, Initial residual = 0, Final residual = 0, No Iterations 0
time step continuity errors : sum local = 7.2711e-17, global = -9.39802e-18, cumulative = -2.30523e-14
ExecutionTime = 0.17 s  ClockTime = 3 s

Time = 0.00066

Courant Number mean: 0.00155004 max: 0.0341958
diagonal:  Solving for rho, Initial residual = 0, Final residual = 0, No Iterations 0
PIMPLE: iteration 1
smoothSolver:  Solving for Ux, Initial residual = 0.00357616, Final residual = 1.41873e-17, No Iterations 1
smoothSolver:  Solving for e, Initial residual = 0.00124881, Final residual = 4.38062e-17, No Iterations 4
smoothSolver:  Solving for p, Initial residual = 0.000402661, Final residual = 1.71456e-17, No Iterations 4
diagonal:  Solving for rho, Initial residual = 0, Final residual = 0, No Iterations 0
time step continuity errors : sum local = 8.73026e-17, global = -1.75594e-17, cumulative = -2.30699e-14
ExecutionTime = 0.17 s  ClockTime = 3 s

Time = 0.00067

Courant Number mean: 0.00156343 max: 0.0341117
diagonal:  Solving for rho, Initial residual = 0, Final residual = 0, No Iterations 0
PIMPLE: iteration 1
smoothSolver:  Solving for Ux, Initial residual = 0.00353865, Final residual = 1.02168e-17, No Iterations 1
smoothSolver:  Solving for e, Initial residual = 0.00121679, Final residual = 4.59172e-17, No Iterations 4
smoothSolver:  Solving for p, Initial residual = 0.000396491, Final residual = 1.35623e-17, No Iterations 4
diagonal:  Solving for rho, Initial residual = 0, Final residual = 0, No Iterations 0
time step continuity errors : sum local = 8.50768e-17, global = -2.52263e-17, cumulative = -2.30951e-14
ExecutionTime = 0.17 s  ClockTime = 3 s

Time = 0.00068

Courant Number mean: 0.00157982 max: 0.0338417
diagonal:  Solving for rho, Initial residual = 0, Final residual = 0, No Iterations 0
PIMPLE: iteration 1
smoothSolver:  Solving for Ux, Initial residual = 0.00350555, Final residual = 9.30386e-18, No Iterations 1
smoothSolver:  Solving for e, Initial residual = 0.00117989, Final residual = 4.80576e-17, No Iterations 4
smoothSolver:  Solving for p, Initial residual = 0.000388258, Final residual = 1.38392e-17, No Iterations 4
diagonal:  Solving for rho, Initial residual = 0, Final residual = 0, No Iterations 0
time step continuity errors : sum local = 9.24963e-17, global = -7.41949e-18, cumulative = -2.31025e-14
ExecutionTime = 0.17 s  ClockTime = 3 s

Time = 0.00069

Courant Number mean: 0.00160419 max: 0.0334536
diagonal:  Solving for rho, Initial residual = 0, Final residual = 0, No Iterations 0
PIMPLE: iteration 1
smoothSolver:  Solving for Ux, Initial residual = 0.00347902, Final residual = 1.20145e-17, No Iterations 1
smoothSolver:  Solving for e, Initial residual = 0.00115196, Final residual = 4.16445e-17, No Iterations 4
smoothSolver:  Solving for p, Initial residual = 0.000381188, Final residual = 1.53841e-17, No Iterations 4
diagonal:  Solving for rho, Initial residual = 0, Final residual = 0, No Iterations 0
time step continuity errors : sum local = 7.32056e-17, global = -2.62155e-17, cumulative = -2.31288e-14
ExecutionTime = 0.17 s  ClockTime = 3 s

Time = 0.0007

Courant Number mean: 0.00163558 max: 0.0330492
diagonal:  Solving for rho, Initial residual = 0, Final residual = 0, No Iterations 0
PIMPLE: iteration 1
smoothSolver:  Solving for Ux, Initial residual = 0.0034535, Final residual = 1.42574e-17, No Iterations 1
smoothSolver:  Solving for e, Initial residual = 0.00114195, Final residual = 4.55677e-17, No Iterations 4
smoothSolver:  Solving for p, Initial residual = 0.000376822, Final residual = 1.3994e-17, No Iterations 4
diagonal:  Solving for rho, Initial residual = 0, Final residual = 0, No Iterations 0
time step continuity errors : sum local = 7.46895e-17, global = -1.68175e-17, cumulative = -2.31456e-14
ExecutionTime = 0.17 s  ClockTime = 3 s

Time = 0.00071

Courant Number mean: 0.00167659 max: 0.0327257
diagonal:  Solving for rho, Initial residual = 0, Final residual = 0, No Iterations 0
PIMPLE: iteration 1
smoothSolver:  Solving for Ux, Initial residual = 0.00342755, Final residual = 1.23974e-17, No Iterations 1
smoothSolver:  Solving for e, Initial residual = 0.00122547, Final residual = 4.77159e-17, No Iterations 4
smoothSolver:  Solving for p, Initial residual = 0.000373498, Final residual = 9.54756e-16, No Iterations 3
diagonal:  Solving for rho, Initial residual = 0, Final residual = 0, No Iterations 0
time step continuity errors : sum local = 1.69634e-15, global = -7.14002e-16, cumulative = -2.38596e-14
ExecutionTime = 0.18 s  ClockTime = 3 s

Time = 0.00072

Courant Number mean: 0.00172221 max: 0.033021
diagonal:  Solving for rho, Initial residual = 0, Final residual = 0, No Iterations 0
PIMPLE: iteration 1
smoothSolver:  Solving for Ux, Initial residual = 0.00339555, Final residual = 1.66594e-17, No Iterations 1
smoothSolver:  Solving for e, Initial residual = 0.0013062, Final residual = 4.56609e-17, No Iterations 4
smoothSolver:  Solving for p, Initial residual = 0.000370305, Final residual = 5.90854e-16, No Iterations 3
diagonal:  Solving for rho, Initial residual = 0, Final residual = 0, No Iterations 0
time step continuity errors : sum local = 1.06272e-15, global = -1.54078e-16, cumulative = -2.40137e-14
ExecutionTime = 0.18 s  ClockTime = 3 s

Time = 0.00073

Courant Number mean: 0.00176235 max: 0.0341637
diagonal:  Solving for rho, Initial residual = 0, Final residual = 0, No Iterations 0
PIMPLE: iteration 1
smoothSolver:  Solving for Ux, Initial residual = 0.00334926, Final residual = 1.66342e-17, No Iterations 1
smoothSolver:  Solving for e, Initial residual = 0.00135888, Final residual = 4.48685e-17, No Iterations 4
smoothSolver:  Solving for p, Initial residual = 0.000370847, Final residual = 5.39004e-16, No Iterations 3
diagonal:  Solving for rho, Initial residual = 0, Final residual = 0, No Iterations 0
time step continuity errors : sum local = 9.68738e-16, global = 1.11045e-16, cumulative = -2.39026e-14
ExecutionTime = 0.18 s  ClockTime = 3 s

Time = 0.00074

Courant Number mean: 0.0017915 max: 0.0349219
diagonal:  Solving for rho, Initial residual = 0, Final residual = 0, No Iterations 0
PIMPLE: iteration 1
smoothSolver:  Solving for Ux, Initial residual = 0.00328748, Final residual = 1.54434e-17, No Iterations 1
smoothSolver:  Solving for e, Initial residual = 0.00137284, Final residual = 4.93076e-17, No Iterations 4
smoothSolver:  Solving for p, Initial residual = 0.000379189, Final residual = 7.27145e-16, No Iterations 3
diagonal:  Solving for rho, Initial residual = 0, Final residual = 0, No Iterations 0
time step continuity errors : sum local = 1.29693e-15, global = 1.67186e-16, cumulative = -2.37354e-14
ExecutionTime = 0.18 s  ClockTime = 3 s

Time = 0.00075

Courant Number mean: 0.00181043 max: 0.0352748
diagonal:  Solving for rho, Initial residual = 0, Final residual = 0, No Iterations 0
PIMPLE: iteration 1
smoothSolver:  Solving for Ux, Initial residual = 0.00321533, Final residual = 1.02056e-17, No Iterations 1
smoothSolver:  Solving for e, Initial residual = 0.00135522, Final residual = 4.16718e-17, No Iterations 4
smoothSolver:  Solving for p, Initial residual = 0.000379984, Final residual = 8.77008e-16, No Iterations 3
diagonal:  Solving for rho, Initial residual = 0, Final residual = 0, No Iterations 0
time step continuity errors : sum local = 1.54498e-15, global = 1.06346e-17, cumulative = -2.37248e-14
ExecutionTime = 0.18 s  ClockTime = 3 s

Time = 0.00076

Courant Number mean: 0.00182269 max: 0.0353306
diagonal:  Solving for rho, Initial residual = 0, Final residual = 0, No Iterations 0
PIMPLE: iteration 1
smoothSolver:  Solving for Ux, Initial residual = 0.00313917, Final residual = 1.39594e-17, No Iterations 1
smoothSolver:  Solving for e, Initial residual = 0.00132585, Final residual = 4.73086e-17, No Iterations 4
smoothSolver:  Solving for p, Initial residual = 0.000378642, Final residual = 1.45004e-17, No Iterations 4
diagonal:  Solving for rho, Initial residual = 0, Final residual = 0, No Iterations 0
time step continuity errors : sum local = 6.65281e-17, global = -2.20111e-17, cumulative = -2.37468e-14
ExecutionTime = 0.18 s  ClockTime = 3 s

Time = 0.00077

Courant Number mean: 0.00183143 max: 0.0352002
diagonal:  Solving for rho, Initial residual = 0, Final residual = 0, No Iterations 0
PIMPLE: iteration 1
smoothSolver:  Solving for Ux, Initial residual = 0.00306318, Final residual = 1.2757e-17, No Iterations 1
smoothSolver:  Solving for e, Initial residual = 0.00129832, Final residual = 4.69927e-17, No Iterations 4
smoothSolver:  Solving for p, Initial residual = 0.000373856, Final residual = 1.50654e-17, No Iterations 4
diagonal:  Solving for rho, Initial residual = 0, Final residual = 0, No Iterations 0
time step continuity errors : sum local = 7.69153e-17, global = -4.27857e-17, cumulative = -2.37896e-14
ExecutionTime = 0.18 s  ClockTime = 3 s

Time = 0.00078

Courant Number mean: 0.00183866 max: 0.0349588
diagonal:  Solving for rho, Initial residual = 0, Final residual = 0, No Iterations 0
PIMPLE: iteration 1
smoothSolver:  Solving for Ux, Initial residual = 0.00298976, Final residual = 1.49218e-17, No Iterations 1
smoothSolver:  Solving for e, Initial residual = 0.00126641, Final residual = 4.65793e-17, No Iterations 4
smoothSolver:  Solving for p, Initial residual = 0.00036797, Final residual = 1.08506e-17, No Iterations 4
diagonal:  Solving for rho, Initial residual = 0, Final residual = 0, No Iterations 0
time step continuity errors : sum local = 8.06251e-17, global = -1.13765e-17, cumulative = -2.3801e-14
ExecutionTime = 0.18 s  ClockTime = 3 s

Time = 0.00079

Courant Number mean: 0.00185692 max: 0.0346555
diagonal:  Solving for rho, Initial residual = 0, Final residual = 0, No Iterations 0
PIMPLE: iteration 1
smoothSolver:  Solving for Ux, Initial residual = 0.00296206, Final residual = 1.27881e-17, No Iterations 1
smoothSolver:  Solving for e, Initial residual = 0.00123931, Final residual = 4.97938e-17, No Iterations 4
smoothSolver:  Solving for p, Initial residual = 0.000362567, Final residual = 1.94226e-17, No Iterations 4
diagonal:  Solving for rho, Initial residual = 0, Final residual = 0, No Iterations 0
time step continuity errors : sum local = 9.37328e-17, global = -2.8936e-17, cumulative = -2.38299e-14
ExecutionTime = 0.18 s  ClockTime = 3 s

Time = 0.0008

Courant Number mean: 0.00188339 max: 0.0343251
diagonal:  Solving for rho, Initial residual = 0, Final residual = 0, No Iterations 0
PIMPLE: iteration 1
smoothSolver:  Solving for Ux, Initial residual = 0.00295614, Final residual = 1.86021e-17, No Iterations 1
smoothSolver:  Solving for e, Initial residual = 0.00121746, Final residual = 4.95781e-17, No Iterations 4
smoothSolver:  Solving for p, Initial residual = 0.000357919, Final residual = 1.47742e-17, No Iterations 4
diagonal:  Solving for rho, Initial residual = 0, Final residual = 0, No Iterations 0
time step continuity errors : sum local = 6.90012e-17, global = -3.8334e-17, cumulative = -2.38682e-14
ExecutionTime = 0.18 s  ClockTime = 3 s

Time = 0.00081

Courant Number mean: 0.001919 max: 0.0339898
diagonal:  Solving for rho, Initial residual = 0, Final residual = 0, No Iterations 0
PIMPLE: iteration 1
smoothSolver:  Solving for Ux, Initial residual = 0.00295311, Final residual = 1.30896e-17, No Iterations 1
smoothSolver:  Solving for e, Initial residual = 0.00120178, Final residual = 4.68945e-17, No Iterations 4
smoothSolver:  Solving for p, Initial residual = 0.000354247, Final residual = 1.22334e-17, No Iterations 4
diagonal:  Solving for rho, Initial residual = 0, Final residual = 0, No Iterations 0
time step continuity errors : sum local = 8.16143e-17, global = -2.02799e-17, cumulative = -2.38885e-14
ExecutionTime = 0.19 s  ClockTime = 3 s

Time = 0.00082

Courant Number mean: 0.0019652 max: 0.0336639
diagonal:  Solving for rho, Initial residual = 0, Final residual = 0, No Iterations 0
PIMPLE: iteration 1
smoothSolver:  Solving for Ux, Initial residual = 0.00295232, Final residual = 9.67197e-18, No Iterations 1
smoothSolver:  Solving for e, Initial residual = 0.00119243, Final residual = 5.00767e-17, No Iterations 4
smoothSolver:  Solving for p, Initial residual = 0.000351663, Final residual = 8.78931e-16, No Iterations 3
diagonal:  Solving for rho, Initial residual = 0, Final residual = 0, No Iterations 0
time step continuity errors : sum local = 1.54622e-15, global = -6.73195e-16, cumulative = -2.45617e-14
ExecutionTime = 0.19 s  ClockTime = 3 s

Time = 0.00083

Courant Number mean: 0.00201178 max: 0.0333651
diagonal:  Solving for rho, Initial residual = 0, Final residual = 0, No Iterations 0
PIMPLE: iteration 1
smoothSolver:  Solving for Ux, Initial residual = 0.00294281, Final residual = 9.57285e-18, No Iterations 1
smoothSolver:  Solving for e, Initial residual = 0.00126992, Final residual = 4.28935e-17, No Iterations 4
smoothSolver:  Solving for p, Initial residual = 0.000349548, Final residual = 5.30495e-16, No Iterations 3
diagonal:  Solving for rho, Initial residual = 0, Final residual = 0, No Iterations 0
time step continuity errors : sum local = 9.45737e-16, global = -2.04283e-16, cumulative = -2.4766e-14
ExecutionTime = 0.19 s  ClockTime = 3 s

Time = 0.00084

Courant Number mean: 0.00204833 max: 0.0331201
diagonal:  Solving for rho, Initial residual = 0, Final residual = 0, No Iterations 0
PIMPLE: iteration 1
smoothSolver:  Solving for Ux, Initial residual = 0.00291626, Final residual = 1.54142e-17, No Iterations 1
smoothSolver:  Solving for e, Initial residual = 0.00132681, Final residual = 4.78413e-17, No Iterations 4
smoothSolver:  Solving for p, Initial residual = 0.000347698, Final residual = 3.50399e-16, No Iterations 3
diagonal:  Solving for rho, Initial residual = 0, Final residual = 0, No Iterations 0
time step continuity errors : sum local = 6.6256e-16, global = 5.46569e-17, cumulative = -2.47113e-14
ExecutionTime = 0.19 s  ClockTime = 3 s

Time = 0.00085

Courant Number mean: 0.00207305 max: 0.0334476
diagonal:  Solving for rho, Initial residual = 0, Final residual = 0, No Iterations 0
PIMPLE: iteration 1
smoothSolver:  Solving for Ux, Initial residual = 0.00287435, Final residual = 1.45282e-17, No Iterations 1
smoothSolver:  Solving for e, Initial residual = 0.00134287, Final residual = 4.5039e-17, No Iterations 4
smoothSolver:  Solving for p, Initial residual = 0.000346627, Final residual = 3.2207e-16, No Iterations 3
diagonal:  Solving for rho, Initial residual = 0, Final residual = 0, No Iterations 0
time step continuity errors : sum local = 6.07409e-16, global = 1.28604e-16, cumulative = -2.45827e-14
ExecutionTime = 0.19 s  ClockTime = 3 s

Time = 0.00086

Courant Number mean: 0.00208993 max: 0.0338337
diagonal:  Solving for rho, Initial residual = 0, Final residual = 0, No Iterations 0
PIMPLE: iteration 1
smoothSolver:  Solving for Ux, Initial residual = 0.00282379, Final residual = 1.61952e-17, No Iterations 1
smoothSolver:  Solving for e, Initial residual = 0.00133191, Final residual = 4.00688e-17, No Iterations 4
smoothSolver:  Solving for p, Initial residual = 0.000346858, Final residual = 3.9166e-16, No Iterations 3
diagonal:  Solving for rho, Initial residual = 0, Final residual = 0, No Iterations 0
time step continuity errors : sum local = 7.07077e-16, global = 6.85066e-17, cumulative = -2.45142e-14
ExecutionTime = 0.19 s  ClockTime = 3 s

Time = 0.00087

Courant Number mean: 0.00210332 max: 0.034056
diagonal:  Solving for rho, Initial residual = 0, Final residual = 0, No Iterations 0
PIMPLE: iteration 1
smoothSolver:  Solving for Ux, Initial residual = 0.00277998, Final residual = 1.10114e-17, No Iterations 1
smoothSolver:  Solving for e, Initial residual = 0.00131144, Final residual = 4.54648e-17, No Iterations 4
smoothSolver:  Solving for p, Initial residual = 0.000348451, Final residual = 4.66795e-16, No Iterations 3
diagonal:  Solving for rho, Initial residual = 0, Final residual = 0, No Iterations 0
time step continuity errors : sum local = 8.61897e-16, global = 2.59682e-17, cumulative = -2.44883e-14
ExecutionTime = 0.19 s  ClockTime = 3 s

Time = 0.00088

Courant Number mean: 0.00211583 max: 0.0342032
diagonal:  Solving for rho, Initial residual = 0, Final residual = 0, No Iterations 0
PIMPLE: iteration 1
smoothSolver:  Solving for Ux, Initial residual = 0.00273666, Final residual = 1.591e-17, No Iterations 1
smoothSolver:  Solving for e, Initial residual = 0.00128828, Final residual = 4.00086e-17, No Iterations 4
smoothSolver:  Solving for p, Initial residual = 0.000350803, Final residual = 5.42088e-16, No Iterations 3
diagonal:  Solving for rho, Initial residual = 0, Final residual = 0, No Iterations 0
time step continuity errors : sum local = 9.77641e-16, global = -5.26783e-17, cumulative = -2.45409e-14
ExecutionTime = 0.19 s  ClockTime = 3 s

Time = 0.00089

Courant Number mean: 0.00212858 max: 0.0343124
diagonal:  Solving for rho, Initial residual = 0, Final residual = 0, No Iterations 0
PIMPLE: iteration 1
smoothSolver:  Solving for Ux, Initial residual = 0.00269459, Final residual = 1.63455e-17, No Iterations 1
smoothSolver:  Solving for e, Initial residual = 0.00126656, Final residual = 4.27422e-17, No Iterations 4
smoothSolver:  Solving for p, Initial residual = 0.000353166, Final residual = 4.55068e-16, No Iterations 3
diagonal:  Solving for rho, Initial residual = 0, Final residual = 0, No Iterations 0
time step continuity errors : sum local = 8.26283e-16, global = -2.67349e-16, cumulative = -2.48083e-14
ExecutionTime = 0.19 s  ClockTime = 3 s

Time = 0.0009

Courant Number mean: 0.00214132 max: 0.0343846
diagonal:  Solving for rho, Initial residual = 0, Final residual = 0, No Iterations 0
PIMPLE: iteration 1
smoothSolver:  Solving for Ux, Initial residual = 0.00265398, Final residual = 1.35458e-17, No Iterations 1
smoothSolver:  Solving for e, Initial residual = 0.00124776, Final residual = 4.17164e-17, No Iterations 4
smoothSolver:  Solving for p, Initial residual = 0.000354319, Final residual = 4.46321e-16, No Iterations 3
diagonal:  Solving for rho, Initial residual = 0, Final residual = 0, No Iterations 0
time step continuity errors : sum local = 8.19359e-16, global = -2.95048e-16, cumulative = -2.51033e-14
ExecutionTime = 0.19 s  ClockTime = 3 s

Time = 0.00091

Courant Number mean: 0.00215357 max: 0.0343881
diagonal:  Solving for rho, Initial residual = 0, Final residual = 0, No Iterations 0
PIMPLE: iteration 1
smoothSolver:  Solving for Ux, Initial residual = 0.00261475, Final residual = 1.20216e-17, No Iterations 1
smoothSolver:  Solving for e, Initial residual = 0.00123177, Final residual = 4.04682e-17, No Iterations 4
smoothSolver:  Solving for p, Initial residual = 0.000354441, Final residual = 4.08198e-16, No Iterations 3
diagonal:  Solving for rho, Initial residual = 0, Final residual = 0, No Iterations 0
time step continuity errors : sum local = 7.36755e-16, global = -2.55478e-16, cumulative = -2.53588e-14
ExecutionTime = 0.19 s  ClockTime = 3 s

Time = 0.00092

Courant Number mean: 0.00217444 max: 0.0343355
diagonal:  Solving for rho, Initial residual = 0, Final residual = 0, No Iterations 0
PIMPLE: iteration 1
smoothSolver:  Solving for Ux, Initial residual = 0.00258383, Final residual = 1.94317e-17, No Iterations 1
smoothSolver:  Solving for e, Initial residual = 0.00123213, Final residual = 4.8811e-17, No Iterations 4
smoothSolver:  Solving for p, Initial residual = 0.000353954, Final residual = 3.41264e-16, No Iterations 3
diagonal:  Solving for rho, Initial residual = 0, Final residual = 0, No Iterations 0
time step continuity errors : sum local = 6.2571e-16, global = -1.83509e-16, cumulative = -2.55423e-14
ExecutionTime = 0.19 s  ClockTime = 3 s

Time = 0.00093

Courant Number mean: 0.00220096 max: 0.0342379
diagonal:  Solving for rho, Initial residual = 0, Final residual = 0, No Iterations 0
PIMPLE: iteration 1
smoothSolver:  Solving for Ux, Initial residual = 0.00255766, Final residual = 1.22093e-17, No Iterations 1
smoothSolver:  Solving for e, Initial residual = 0.00123651, Final residual = 3.96322e-17, No Iterations 4
smoothSolver:  Solving for p, Initial residual = 0.000352973, Final residual = 2.63326e-16, No Iterations 3
diagonal:  Solving for rho, Initial residual = 0, Final residual = 0, No Iterations 0
time step continuity errors : sum local = 4.92407e-16, global = -7.64207e-17, cumulative = -2.56187e-14
ExecutionTime = 0.19 s  ClockTime = 3 s

Time = 0.00094

Courant Number mean: 0.00223423 max: 0.0341021
diagonal:  Solving for rho, Initial residual = 0, Final residual = 0, No Iterations 0
PIMPLE: iteration 1
smoothSolver:  Solving for Ux, Initial residual = 0.00253647, Final residual = 1.06124e-17, No Iterations 1
smoothSolver:  Solving for e, Initial residual = 0.00124131, Final residual = 4.20343e-17, No Iterations 4
smoothSolver:  Solving for p, Initial residual = 0.000352967, Final residual = 1.89307e-16, No Iterations 3
diagonal:  Solving for rho, Initial residual = 0, Final residual = 0, No Iterations 0
time step continuity errors : sum local = 3.65039e-16, global = 1.78068e-17, cumulative = -2.56009e-14
ExecutionTime = 0.19 s  ClockTime = 3 s

Time = 0.00095

Courant Number mean: 0.00227732 max: 0.0339406
diagonal:  Solving for rho, Initial residual = 0, Final residual = 0, No Iterations 0
PIMPLE: iteration 1
smoothSolver:  Solving for Ux, Initial residual = 0.00252194, Final residual = 1.71133e-17, No Iterations 1
smoothSolver:  Solving for e, Initial residual = 0.00124979, Final residual = 4.7341e-17, No Iterations 4
smoothSolver:  Solving for p, Initial residual = 0.000352791, Final residual = 1.37906e-16, No Iterations 3
diagonal:  Solving for rho, Initial residual = 0, Final residual = 0, No Iterations 0
time step continuity errors : sum local = 2.77241e-16, global = 4.3775e-17, cumulative = -2.55572e-14
ExecutionTime = 0.2 s  ClockTime = 3 s

Time = 0.00096

Courant Number mean: 0.00232503 max: 0.033772
diagonal:  Solving for rho, Initial residual = 0, Final residual = 0, No Iterations 0
PIMPLE: iteration 1
smoothSolver:  Solving for Ux, Initial residual = 0.00250886, Final residual = 1.35687e-17, No Iterations 1
smoothSolver:  Solving for e, Initial residual = 0.00125926, Final residual = 4.69166e-17, No Iterations 4
smoothSolver:  Solving for p, Initial residual = 0.000351963, Final residual = 1.23585e-16, No Iterations 3
diagonal:  Solving for rho, Initial residual = 0, Final residual = 0, No Iterations 0
time step continuity errors : sum local = 2.59435e-16, global = 7.34529e-17, cumulative = -2.54837e-14
ExecutionTime = 0.2 s  ClockTime = 3 s

Time = 0.00097

Courant Number mean: 0.00236745 max: 0.0336167
diagonal:  Solving for rho, Initial residual = 0, Final residual = 0, No Iterations 0
PIMPLE: iteration 1
smoothSolver:  Solving for Ux, Initial residual = 0.00248933, Final residual = 1.51714e-17, No Iterations 1
smoothSolver:  Solving for e, Initial residual = 0.00126373, Final residual = 4.76729e-17, No Iterations 4
smoothSolver:  Solving for p, Initial residual = 0.00035165, Final residual = 1.35514e-16, No Iterations 3
diagonal:  Solving for rho, Initial residual = 0, Final residual = 0, No Iterations 0
time step continuity errors : sum local = 2.91586e-16, global = 8.43348e-17, cumulative = -2.53994e-14
ExecutionTime = 0.2 s  ClockTime = 3 s

Time = 0.00098

Courant Number mean: 0.00240001 max: 0.0335112
diagonal:  Solving for rho, Initial residual = 0, Final residual = 0, No Iterations 0
PIMPLE: iteration 1
smoothSolver:  Solving for Ux, Initial residual = 0.0024599, Final residual = 1.18908e-17, No Iterations 1
smoothSolver:  Solving for e, Initial residual = 0.00129483, Final residual = 3.83879e-17, No Iterations 4
smoothSolver:  Solving for p, Initial residual = 0.00035223, Final residual = 1.15359e-16, No Iterations 3
diagonal:  Solving for rho, Initial residual = 0, Final residual = 0, No Iterations 0
time step continuity errors : sum local = 2.38907e-16, global = 5.44096e-18, cumulative = -2.53939e-14
ExecutionTime = 0.2 s  ClockTime = 3 s

Time = 0.00099

Courant Number mean: 0.00242168 max: 0.033346
diagonal:  Solving for rho, Initial residual = 0, Final residual = 0, No Iterations 0
PIMPLE: iteration 1
smoothSolver:  Solving for Ux, Initial residual = 0.00242654, Final residual = 1.86124e-17, No Iterations 1
smoothSolver:  Solving for e, Initial residual = 0.00131584, Final residual = 3.81819e-17, No Iterations 4
smoothSolver:  Solving for p, Initial residual = 0.000351719, Final residual = 2.50147e-16, No Iterations 3
diagonal:  Solving for rho, Initial residual = 0, Final residual = 0, No Iterations 0
time step continuity errors : sum local = 4.59266e-16, global = 2.55972e-16, cumulative = -2.5138e-14
ExecutionTime = 0.2 s  ClockTime = 3 s

Time = 0.001

Courant Number mean: 0.00243648 max: 0.0331693
diagonal:  Solving for rho, Initial residual = 0, Final residual = 0, No Iterations 0
PIMPLE: iteration 1
smoothSolver:  Solving for Ux, Initial residual = 0.0023967, Final residual = 1.61142e-17, No Iterations 1
smoothSolver:  Solving for e, Initial residual = 0.00131808, Final residual = 3.93678e-17, No Iterations 4
smoothSolver:  Solving for p, Initial residual = 0.000350637, Final residual = 2.35748e-16, No Iterations 3
diagonal:  Solving for rho, Initial residual = 0, Final residual = 0, No Iterations 0
time step continuity errors : sum local = 4.469e-16, global = 2.49047e-16, cumulative = -2.48889e-14
ExecutionTime = 0.21 s  ClockTime = 3 s

    functionObjects::mag mag(U) writing field: mag(U)
Time = 0.00101

Courant Number mean: 0.00244773 max: 0.0330837
diagonal:  Solving for rho, Initial residual = 0, Final residual = 0, No Iterations 0
PIMPLE: iteration 1
smoothSolver:  Solving for Ux, Initial residual = 0.00236382, Final residual = 1.25634e-17, No Iterations 1
smoothSolver:  Solving for e, Initial residual = 0.00130973, Final residual = 4.57948e-17, No Iterations 4
smoothSolver:  Solving for p, Initial residual = 0.000349305, Final residual = 2.17977e-16, No Iterations 3
diagonal:  Solving for rho, Initial residual = 0, Final residual = 0, No Iterations 0
time step continuity errors : sum local = 4.22169e-16, global = 1.97111e-16, cumulative = -2.46918e-14
ExecutionTime = 0.21 s  ClockTime = 3 s

Time = 0.00102

Courant Number mean: 0.00245729 max: 0.03318
diagonal:  Solving for rho, Initial residual = 0, Final residual = 0, No Iterations 0
PIMPLE: iteration 1
smoothSolver:  Solving for Ux, Initial residual = 0.00232979, Final residual = 1.30021e-17, No Iterations 1
smoothSolver:  Solving for e, Initial residual = 0.0012958, Final residual = 4.3058e-17, No Iterations 4
smoothSolver:  Solving for p, Initial residual = 0.000347962, Final residual = 2.03168e-16, No Iterations 3
diagonal:  Solving for rho, Initial residual = 0, Final residual = 0, No Iterations 0
time step continuity errors : sum local = 3.86555e-16, global = 1.59519e-16, cumulative = -2.45323e-14
ExecutionTime = 0.21 s  ClockTime = 3 s

Time = 0.00103

Courant Number mean: 0.00246616 max: 0.0332061
diagonal:  Solving for rho, Initial residual = 0, Final residual = 0, No Iterations 0
PIMPLE: iteration 1
smoothSolver:  Solving for Ux, Initial residual = 0.00229564, Final residual = 9.81391e-18, No Iterations 1
smoothSolver:  Solving for e, Initial residual = 0.0012793, Final residual = 4.26888e-17, No Iterations 4
smoothSolver:  Solving for p, Initial residual = 0.000346523, Final residual = 1.8508e-16, No Iterations 3
diagonal:  Solving for rho, Initial residual = 0, Final residual = 0, No Iterations 0
time step continuity errors : sum local = 3.62071e-16, global = 1.30088e-16, cumulative = -2.44022e-14
ExecutionTime = 0.21 s  ClockTime = 3 s

Time = 0.00104

Courant Number mean: 0.00247488 max: 0.0331822
diagonal:  Solving for rho, Initial residual = 0, Final residual = 0, No Iterations 0
PIMPLE: iteration 1
smoothSolver:  Solving for Ux, Initial residual = 0.00226189, Final residual = 1.42527e-17, No Iterations 1
smoothSolver:  Solving for e, Initial residual = 0.00126164, Final residual = 3.74573e-17, No Iterations 4
smoothSolver:  Solving for p, Initial residual = 0.000344968, Final residual = 1.70168e-16, No Iterations 3
diagonal:  Solving for rho, Initial residual = 0, Final residual = 0, No Iterations 0
time step continuity errors : sum local = 3.27447e-16, global = 1.36519e-16, cumulative = -2.42657e-14
ExecutionTime = 0.21 s  ClockTime = 3 s

Time = 0.00105

Courant Number mean: 0.00248369 max: 0.0331187
diagonal:  Solving for rho, Initial residual = 0, Final residual = 0, No Iterations 0
PIMPLE: iteration 1
smoothSolver:  Solving for Ux, Initial residual = 0.0022288, Final residual = 1.53702e-17, No Iterations 1
smoothSolver:  Solving for e, Initial residual = 0.00124354, Final residual = 4.55686e-17, No Iterations 4
smoothSolver:  Solving for p, Initial residual = 0.00034333, Final residual = 1.54617e-16, No Iterations 3
diagonal:  Solving for rho, Initial residual = 0, Final residual = 0, No Iterations 0
time step continuity errors : sum local = 3.18049e-16, global = 1.09808e-16, cumulative = -2.41559e-14
ExecutionTime = 0.21 s  ClockTime = 3 s

Time = 0.00106

Courant Number mean: 0.00249485 max: 0.0330214
diagonal:  Solving for rho, Initial residual = 0, Final residual = 0, No Iterations 0
PIMPLE: iteration 1
smoothSolver:  Solving for Ux, Initial residual = 0.00219793, Final residual = 1.46887e-17, No Iterations 1
smoothSolver:  Solving for e, Initial residual = 0.00122653, Final residual = 3.88724e-17, No Iterations 4
smoothSolver:  Solving for p, Initial residual = 0.000341875, Final residual = 1.43175e-16, No Iterations 3
diagonal:  Solving for rho, Initial residual = 0, Final residual = 0, No Iterations 0
time step continuity errors : sum local = 2.91091e-16, global = 1.38744e-16, cumulative = -2.40171e-14
ExecutionTime = 0.21 s  ClockTime = 3 s

Time = 0.00107

Courant Number mean: 0.00251456 max: 0.0328956
diagonal:  Solving for rho, Initial residual = 0, Final residual = 0, No Iterations 0
PIMPLE: iteration 1
smoothSolver:  Solving for Ux, Initial residual = 0.00217327, Final residual = 9.43094e-18, No Iterations 1
smoothSolver:  Solving for e, Initial residual = 0.00121455, Final residual = 3.86033e-17, No Iterations 4
smoothSolver:  Solving for p, Initial residual = 0.000340926, Final residual = 1.26876e-16, No Iterations 3
diagonal:  Solving for rho, Initial residual = 0, Final residual = 0, No Iterations 0
time step continuity errors : sum local = 2.58445e-16, global = 8.77972e-17, cumulative = -2.39293e-14
ExecutionTime = 0.21 s  ClockTime = 3 s

Time = 0.00108

Courant Number mean: 0.00254071 max: 0.032749
diagonal:  Solving for rho, Initial residual = 0, Final residual = 0, No Iterations 0
PIMPLE: iteration 1
smoothSolver:  Solving for Ux, Initial residual = 0.0021532, Final residual = 1.74077e-17, No Iterations 1
smoothSolver:  Solving for e, Initial residual = 0.0012126, Final residual = 5.79008e-17, No Iterations 4
smoothSolver:  Solving for p, Initial residual = 0.000340166, Final residual = 1.23868e-16, No Iterations 3
diagonal:  Solving for rho, Initial residual = 0, Final residual = 0, No Iterations 0
time step continuity errors : sum local = 2.53004e-16, global = 9.42275e-17, cumulative = -2.38351e-14
ExecutionTime = 0.21 s  ClockTime = 3 s

Time = 0.00109

Courant Number mean: 0.00257547 max: 0.0325881
[...]
smoothSolver:  Solving for e, Initial residual = 0.000732744, Final residual = 3.28216e-17, No Iterations 4
smoothSolver:  Solving for p, Initial residual = 0.000378168, Final residual = 1.96539e-16, No Iterations 3
diagonal:  Solving for rho, Initial residual = 0, Final residual = 0, No Iterations 0
time step continuity errors : sum local = 2.68776e-16, global = 4.89593e-17, cumulative = -2.32873e-13
ExecutionTime = 1.3 s  ClockTime = 4 s

Time = 0.00974

Courant Number mean: 0.0200731 max: 0.0294872
diagonal:  Solving for rho, Initial residual = 0, Final residual = 0, No Iterations 0
PIMPLE: iteration 1
smoothSolver:  Solving for Ux, Initial residual = 0.000363373, Final residual = 4.37769e-17, No Iterations 1
smoothSolver:  Solving for e, Initial residual = 0.000733938, Final residual = 3.81685e-17, No Iterations 4
smoothSolver:  Solving for p, Initial residual = 0.000377999, Final residual = 1.98588e-16, No Iterations 3
diagonal:  Solving for rho, Initial residual = 0, Final residual = 0, No Iterations 0
time step continuity errors : sum local = 2.18847e-16, global = 3.69742e-17, cumulative = -2.32836e-13
ExecutionTime = 1.31 s  ClockTime = 4 s

Time = 0.00975

Courant Number mean: 0.0200781 max: 0.0294882
diagonal:  Solving for rho, Initial residual = 0, Final residual = 0, No Iterations 0
PIMPLE: iteration 1
smoothSolver:  Solving for Ux, Initial residual = 0.000363412, Final residual = 3.97557e-17, No Iterations 1
smoothSolver:  Solving for e, Initial residual = 0.000736568, Final residual = 3.93499e-17, No Iterations 4
smoothSolver:  Solving for p, Initial residual = 0.000379038, Final residual = 1.91665e-16, No Iterations 3
diagonal:  Solving for rho, Initial residual = 0, Final residual = 0, No Iterations 0
time step continuity errors : sum local = 2.37865e-16, global = 1.03941e-16, cumulative = -2.32732e-13
ExecutionTime = 1.31 s  ClockTime = 4 s

Time = 0.00976

Courant Number mean: 0.0200833 max: 0.0294893
diagonal:  Solving for rho, Initial residual = 0, Final residual = 0, No Iterations 0
PIMPLE: iteration 1
smoothSolver:  Solving for Ux, Initial residual = 0.000363496, Final residual = 3.62925e-17, No Iterations 1
smoothSolver:  Solving for e, Initial residual = 0.000738694, Final residual = 3.76568e-17, No Iterations 4
smoothSolver:  Solving for p, Initial residual = 0.00038094, Final residual = 2.53881e-16, No Iterations 3
diagonal:  Solving for rho, Initial residual = 0, Final residual = 0, No Iterations 0
time step continuity errors : sum local = 2.80879e-16, global = 1.69927e-17, cumulative = -2.32715e-13
ExecutionTime = 1.31 s  ClockTime = 4 s

Time = 0.00977

Courant Number mean: 0.0200887 max: 0.0294902
diagonal:  Solving for rho, Initial residual = 0, Final residual = 0, No Iterations 0
PIMPLE: iteration 1
smoothSolver:  Solving for Ux, Initial residual = 0.000363613, Final residual = 4.45887e-17, No Iterations 1
smoothSolver:  Solving for e, Initial residual = 0.000739792, Final residual = 3.23617e-17, No Iterations 4
smoothSolver:  Solving for p, Initial residual = 0.000382528, Final residual = 2.50317e-16, No Iterations 3
diagonal:  Solving for rho, Initial residual = 0, Final residual = 0, No Iterations 0
time step continuity errors : sum local = 2.62921e-16, global = -1.09967e-17, cumulative = -2.32726e-13
ExecutionTime = 1.31 s  ClockTime = 4 s

Time = 0.00978

Courant Number mean: 0.0200943 max: 0.0294909
diagonal:  Solving for rho, Initial residual = 0, Final residual = 0, No Iterations 0
PIMPLE: iteration 1
smoothSolver:  Solving for Ux, Initial residual = 0.000363704, Final residual = 3.94367e-17, No Iterations 1
smoothSolver:  Solving for e, Initial residual = 0.000739758, Final residual = 3.53442e-17, No Iterations 4
smoothSolver:  Solving for p, Initial residual = 0.000383129, Final residual = 2.33175e-16, No Iterations 3
diagonal:  Solving for rho, Initial residual = 0, Final residual = 0, No Iterations 0
time step continuity errors : sum local = 2.71955e-16, global = 9.99834e-18, cumulative = -2.32716e-13
ExecutionTime = 1.31 s  ClockTime = 4 s

Time = 0.00979

Courant Number mean: 0.0201002 max: 0.0294915
diagonal:  Solving for rho, Initial residual = 0, Final residual = 0, No Iterations 0
PIMPLE: iteration 1
smoothSolver:  Solving for Ux, Initial residual = 0.00036377, Final residual = 3.98639e-17, No Iterations 1
smoothSolver:  Solving for e, Initial residual = 0.000737748, Final residual = 3.51638e-17, No Iterations 4
smoothSolver:  Solving for p, Initial residual = 0.000382308, Final residual = 2.2853e-16, No Iterations 3
diagonal:  Solving for rho, Initial residual = 0, Final residual = 0, No Iterations 0
time step continuity errors : sum local = 2.78991e-16, global = 6.89978e-17, cumulative = -2.32647e-13
ExecutionTime = 1.31 s  ClockTime = 4 s

Time = 0.0098

Courant Number mean: 0.0201061 max: 0.0294918
diagonal:  Solving for rho, Initial residual = 0, Final residual = 0, No Iterations 0
PIMPLE: iteration 1
smoothSolver:  Solving for Ux, Initial residual = 0.000363805, Final residual = 3.83367e-17, No Iterations 1
smoothSolver:  Solving for e, Initial residual = 0.000735742, Final residual = 3.19307e-17, No Iterations 4
smoothSolver:  Solving for p, Initial residual = 0.000380961, Final residual = 1.96537e-16, No Iterations 3
diagonal:  Solving for rho, Initial residual = 0, Final residual = 0, No Iterations 0
time step continuity errors : sum local = 2.22022e-16, global = 3.0003e-17, cumulative = -2.32617e-13
ExecutionTime = 1.31 s  ClockTime = 4 s

Time = 0.00981

Courant Number mean: 0.0201118 max: 0.0294886
diagonal:  Solving for rho, Initial residual = 0, Final residual = 0, No Iterations 0
PIMPLE: iteration 1
smoothSolver:  Solving for Ux, Initial residual = 0.000363933, Final residual = 2.80679e-17, No Iterations 1
smoothSolver:  Solving for e, Initial residual = 0.000735074, Final residual = 3.27104e-17, No Iterations 4
smoothSolver:  Solving for p, Initial residual = 0.000380179, Final residual = 2.04862e-16, No Iterations 3
diagonal:  Solving for rho, Initial residual = 0, Final residual = 0, No Iterations 0
time step continuity errors : sum local = 2.41057e-16, global = 3.90092e-17, cumulative = -2.32578e-13
ExecutionTime = 1.31 s  ClockTime = 4 s

Time = 0.00982

Courant Number mean: 0.0201173 max: 0.0294819
diagonal:  Solving for rho, Initial residual = 0, Final residual = 0, No Iterations 0
PIMPLE: iteration 1
smoothSolver:  Solving for Ux, Initial residual = 0.000364096, Final residual = 4.20639e-17, No Iterations 1
smoothSolver:  Solving for e, Initial residual = 0.000736049, Final residual = 3.7236e-17, No Iterations 4
smoothSolver:  Solving for p, Initial residual = 0.000380539, Final residual = 2.45069e-16, No Iterations 3
diagonal:  Solving for rho, Initial residual = 0, Final residual = 0, No Iterations 0
time step continuity errors : sum local = 2.74101e-16, global = 2.00074e-17, cumulative = -2.32558e-13
ExecutionTime = 1.32 s  ClockTime = 4 s

Time = 0.00983

Courant Number mean: 0.0201228 max: 0.0294793
diagonal:  Solving for rho, Initial residual = 0, Final residual = 0, No Iterations 0
PIMPLE: iteration 1
smoothSolver:  Solving for Ux, Initial residual = 0.000364229, Final residual = 4.12446e-17, No Iterations 1
smoothSolver:  Solving for e, Initial residual = 0.000736813, Final residual = 3.57645e-17, No Iterations 4
smoothSolver:  Solving for p, Initial residual = 0.00038141, Final residual = 2.43308e-16, No Iterations 3
diagonal:  Solving for rho, Initial residual = 0, Final residual = 0, No Iterations 0
time step continuity errors : sum local = 2.84143e-16, global = 1.6008e-17, cumulative = -2.32542e-13
ExecutionTime = 1.32 s  ClockTime = 4 s

Time = 0.00984

Courant Number mean: 0.0201282 max: 0.0294811
diagonal:  Solving for rho, Initial residual = 0, Final residual = 0, No Iterations 0
PIMPLE: iteration 1
smoothSolver:  Solving for Ux, Initial residual = 0.000364255, Final residual = 4.35348e-17, No Iterations 1
smoothSolver:  Solving for e, Initial residual = 0.00073699, Final residual = 3.56756e-17, No Iterations 4
smoothSolver:  Solving for p, Initial residual = 0.000382592, Final residual = 2.42027e-16, No Iterations 3
diagonal:  Solving for rho, Initial residual = 0, Final residual = 0, No Iterations 0
time step continuity errors : sum local = 2.59165e-16, global = 1.00064e-18, cumulative = -2.32541e-13
ExecutionTime = 1.32 s  ClockTime = 4 s

Time = 0.00985

Courant Number mean: 0.0201338 max: 0.0294828
diagonal:  Solving for rho, Initial residual = 0, Final residual = 0, No Iterations 0
PIMPLE: iteration 1
smoothSolver:  Solving for Ux, Initial residual = 0.000364289, Final residual = 4.30818e-17, No Iterations 1
smoothSolver:  Solving for e, Initial residual = 0.000737285, Final residual = 4.12435e-17, No Iterations 4
smoothSolver:  Solving for p, Initial residual = 0.000383921, Final residual = 2.31144e-16, No Iterations 3
diagonal:  Solving for rho, Initial residual = 0, Final residual = 0, No Iterations 0
time step continuity errors : sum local = 2.63203e-16, global = -7.00539e-18, cumulative = -2.32548e-13
ExecutionTime = 1.32 s  ClockTime = 4 s

Time = 0.00986

Courant Number mean: 0.0201395 max: 0.0294842
diagonal:  Solving for rho, Initial residual = 0, Final residual = 0, No Iterations 0
PIMPLE: iteration 1
smoothSolver:  Solving for Ux, Initial residual = 0.000364357, Final residual = 3.94079e-17, No Iterations 1
smoothSolver:  Solving for e, Initial residual = 0.000737015, Final residual = 3.52728e-17, No Iterations 4
smoothSolver:  Solving for p, Initial residual = 0.00038495, Final residual = 2.60391e-16, No Iterations 3
diagonal:  Solving for rho, Initial residual = 0, Final residual = 0, No Iterations 0
time step continuity errors : sum local = 2.82255e-16, global = 8.00724e-18, cumulative = -2.3254e-13
ExecutionTime = 1.32 s  ClockTime = 4 s

Time = 0.00987

Courant Number mean: 0.0201454 max: 0.0294854
diagonal:  Solving for rho, Initial residual = 0, Final residual = 0, No Iterations 0
PIMPLE: iteration 1
smoothSolver:  Solving for Ux, Initial residual = 0.000364541, Final residual = 3.60679e-17, No Iterations 1
smoothSolver:  Solving for e, Initial residual = 0.00073654, Final residual = 3.58906e-17, No Iterations 4
smoothSolver:  Solving for p, Initial residual = 0.000385291, Final residual = 2.2541e-16, No Iterations 3
diagonal:  Solving for rho, Initial residual = 0, Final residual = 0, No Iterations 0
time step continuity errors : sum local = 2.95307e-16, global = 3.00312e-18, cumulative = -2.32537e-13
ExecutionTime = 1.32 s  ClockTime = 4 s

Time = 0.00988

Courant Number mean: 0.0201513 max: 0.0294862
diagonal:  Solving for rho, Initial residual = 0, Final residual = 0, No Iterations 0
PIMPLE: iteration 1
smoothSolver:  Solving for Ux, Initial residual = 0.000364805, Final residual = 3.82623e-17, No Iterations 1
smoothSolver:  Solving for e, Initial residual = 0.000734906, Final residual = 3.28522e-17, No Iterations 4
smoothSolver:  Solving for p, Initial residual = 0.000384913, Final residual = 2.27956e-16, No Iterations 3
diagonal:  Solving for rho, Initial residual = 0, Final residual = 0, No Iterations 0
time step continuity errors : sum local = 2.60305e-16, global = 1.80211e-17, cumulative = -2.32519e-13
ExecutionTime = 1.32 s  ClockTime = 4 s

Time = 0.00989

Courant Number mean: 0.0201575 max: 0.0294866
diagonal:  Solving for rho, Initial residual = 0, Final residual = 0, No Iterations 0
PIMPLE: iteration 1
smoothSolver:  Solving for Ux, Initial residual = 0.000365013, Final residual = 3.98225e-17, No Iterations 1
smoothSolver:  Solving for e, Initial residual = 0.000733371, Final residual = 3.70961e-17, No Iterations 4
smoothSolver:  Solving for p, Initial residual = 0.000384031, Final residual = 2.16148e-16, No Iterations 3
diagonal:  Solving for rho, Initial residual = 0, Final residual = 0, No Iterations 0
time step continuity errors : sum local = 2.55334e-16, global = 1.0714e-16, cumulative = -2.32412e-13
ExecutionTime = 1.32 s  ClockTime = 4 s

Time = 0.0099

Courant Number mean: 0.0201634 max: 0.029486
diagonal:  Solving for rho, Initial residual = 0, Final residual = 0, No Iterations 0
PIMPLE: iteration 1
smoothSolver:  Solving for Ux, Initial residual = 0.000365152, Final residual = 3.32728e-17, No Iterations 1
smoothSolver:  Solving for e, Initial residual = 0.000730911, Final residual = 3.31136e-17, No Iterations 4
smoothSolver:  Solving for p, Initial residual = 0.000382312, Final residual = 2.03126e-16, No Iterations 3
diagonal:  Solving for rho, Initial residual = 0, Final residual = 0, No Iterations 0
time step continuity errors : sum local = 2.31334e-16, global = 6.3091e-17, cumulative = -2.32349e-13
ExecutionTime = 1.32 s  ClockTime = 4 s

Time = 0.00991

Courant Number mean: 0.0201687 max: 0.0294818
diagonal:  Solving for rho, Initial residual = 0, Final residual = 0, No Iterations 0
PIMPLE: iteration 1
smoothSolver:  Solving for Ux, Initial residual = 0.000365226, Final residual = 5.14845e-17, No Iterations 1
smoothSolver:  Solving for e, Initial residual = 0.000727695, Final residual = 3.09567e-17, No Iterations 4
smoothSolver:  Solving for p, Initial residual = 0.000381479, Final residual = 2.0802e-16, No Iterations 3
diagonal:  Solving for rho, Initial residual = 0, Final residual = 0, No Iterations 0
time step continuity errors : sum local = 2.41381e-16, global = 6.10963e-17, cumulative = -2.32288e-13
ExecutionTime = 1.33 s  ClockTime = 4 s

Time = 0.00992

Courant Number mean: 0.0201737 max: 0.0294751
diagonal:  Solving for rho, Initial residual = 0, Final residual = 0, No Iterations 0
PIMPLE: iteration 1
smoothSolver:  Solving for Ux, Initial residual = 0.000365242, Final residual = 4.02568e-17, No Iterations 1
smoothSolver:  Solving for e, Initial residual = 0.000727401, Final residual = 3.77112e-17, No Iterations 4
smoothSolver:  Solving for p, Initial residual = 0.000382434, Final residual = 2.2319e-16, No Iterations 3
diagonal:  Solving for rho, Initial residual = 0, Final residual = 0, No Iterations 0
time step continuity errors : sum local = 2.42415e-16, global = 4.80823e-17, cumulative = -2.3224e-13
ExecutionTime = 1.33 s  ClockTime = 4 s

Time = 0.00993

Courant Number mean: 0.0201787 max: 0.0294694
diagonal:  Solving for rho, Initial residual = 0, Final residual = 0, No Iterations 0
PIMPLE: iteration 1
smoothSolver:  Solving for Ux, Initial residual = 0.000365215, Final residual = 4.2632e-17, No Iterations 1
smoothSolver:  Solving for e, Initial residual = 0.000729813, Final residual = 3.04206e-17, No Iterations 4
smoothSolver:  Solving for p, Initial residual = 0.000384426, Final residual = 2.44012e-16, No Iterations 3
diagonal:  Solving for rho, Initial residual = 0, Final residual = 0, No Iterations 0
time step continuity errors : sum local = 2.73505e-16, global = 3.50647e-17, cumulative = -2.32205e-13
ExecutionTime = 1.33 s  ClockTime = 4 s

Time = 0.00994

Courant Number mean: 0.0201838 max: 0.0294666
diagonal:  Solving for rho, Initial residual = 0, Final residual = 0, No Iterations 0
PIMPLE: iteration 1
smoothSolver:  Solving for Ux, Initial residual = 0.000365167, Final residual = 4.10545e-17, No Iterations 1
smoothSolver:  Solving for e, Initial residual = 0.000731634, Final residual = 3.9845e-17, No Iterations 4
smoothSolver:  Solving for p, Initial residual = 0.000385632, Final residual = 2.3602e-16, No Iterations 3
diagonal:  Solving for rho, Initial residual = 0, Final residual = 0, No Iterations 0
time step continuity errors : sum local = 2.54504e-16, global = 1.20238e-17, cumulative = -2.32193e-13
ExecutionTime = 1.33 s  ClockTime = 4 s

Time = 0.00995

Courant Number mean: 0.020189 max: 0.0294683
diagonal:  Solving for rho, Initial residual = 0, Final residual = 0, No Iterations 0
PIMPLE: iteration 1
smoothSolver:  Solving for Ux, Initial residual = 0.000365256, Final residual = 3.81565e-17, No Iterations 1
smoothSolver:  Solving for e, Initial residual = 0.000732614, Final residual = 3.44186e-17, No Iterations 4
smoothSolver:  Solving for p, Initial residual = 0.000386566, Final residual = 2.42689e-16, No Iterations 3
diagonal:  Solving for rho, Initial residual = 0, Final residual = 0, No Iterations 0
time step continuity errors : sum local = 2.62556e-16, global = -1.80382e-17, cumulative = -2.32211e-13
ExecutionTime = 1.34 s  ClockTime = 4 s

Time = 0.00996

Courant Number mean: 0.0201944 max: 0.0294697
diagonal:  Solving for rho, Initial residual = 0, Final residual = 0, No Iterations 0
PIMPLE: iteration 1
smoothSolver:  Solving for Ux, Initial residual = 0.000365356, Final residual = 3.73024e-17, No Iterations 1
smoothSolver:  Solving for e, Initial residual = 0.000732709, Final residual = 3.80061e-17, No Iterations 4
smoothSolver:  Solving for p, Initial residual = 0.000387138, Final residual = 2.51048e-16, No Iterations 3
diagonal:  Solving for rho, Initial residual = 0, Final residual = 0, No Iterations 0
time step continuity errors : sum local = 2.7963e-16, global = 1.50339e-17, cumulative = -2.32196e-13
ExecutionTime = 1.34 s  ClockTime = 4 s

Time = 0.00997

Courant Number mean: 0.0202002 max: 0.0294705
diagonal:  Solving for rho, Initial residual = 0, Final residual = 0, No Iterations 0
PIMPLE: iteration 1
smoothSolver:  Solving for Ux, Initial residual = 0.000365427, Final residual = 3.73433e-17, No Iterations 1
smoothSolver:  Solving for e, Initial residual = 0.000731408, Final residual = 3.18852e-17, No Iterations 4
smoothSolver:  Solving for p, Initial residual = 0.000386495, Final residual = 2.28856e-16, No Iterations 3
diagonal:  Solving for rho, Initial residual = 0, Final residual = 0, No Iterations 0
time step continuity errors : sum local = 2.50598e-16, global = -3.20766e-17, cumulative = -2.32228e-13
ExecutionTime = 1.34 s  ClockTime = 4 s

Time = 0.00998

Courant Number mean: 0.0202058 max: 0.0294709
diagonal:  Solving for rho, Initial residual = 0, Final residual = 0, No Iterations 0
PIMPLE: iteration 1
smoothSolver:  Solving for Ux, Initial residual = 0.000365526, Final residual = 4.18143e-17, No Iterations 1
smoothSolver:  Solving for e, Initial residual = 0.000728657, Final residual = 3.42067e-17, No Iterations 4
smoothSolver:  Solving for p, Initial residual = 0.000384705, Final residual = 2.06446e-16, No Iterations 3
diagonal:  Solving for rho, Initial residual = 0, Final residual = 0, No Iterations 0
time step continuity errors : sum local = 2.39605e-16, global = 5.1129e-17, cumulative = -2.32177e-13
ExecutionTime = 1.34 s  ClockTime = 4 s

Time = 0.00999

Courant Number mean: 0.0202114 max: 0.0294708
diagonal:  Solving for rho, Initial residual = 0, Final residual = 0, No Iterations 0
PIMPLE: iteration 1
smoothSolver:  Solving for Ux, Initial residual = 0.000365831, Final residual = 3.85469e-17, No Iterations 1
smoothSolver:  Solving for e, Initial residual = 0.000726104, Final residual = 3.6303e-17, No Iterations 4
smoothSolver:  Solving for p, Initial residual = 0.000382369, Final residual = 1.94449e-16, No Iterations 3
diagonal:  Solving for rho, Initial residual = 0, Final residual = 0, No Iterations 0
time step continuity errors : sum local = 2.34624e-16, global = 1.60426e-17, cumulative = -2.32161e-13
ExecutionTime = 1.34 s  ClockTime = 4 s

Time = 0.01

Courant Number mean: 0.0202166 max: 0.0294678
diagonal:  Solving for rho, Initial residual = 0, Final residual = 0, No Iterations 0
PIMPLE: iteration 1
smoothSolver:  Solving for Ux, Initial residual = 0.000366055, Final residual = 3.53821e-17, No Iterations 1
smoothSolver:  Solving for e, Initial residual = 0.000727098, Final residual = 3.44663e-17, No Iterations 4
smoothSolver:  Solving for p, Initial residual = 0.000381281, Final residual = 2.282e-16, No Iterations 3
diagonal:  Solving for rho, Initial residual = 0, Final residual = 0, No Iterations 0
time step continuity errors : sum local = 2.76773e-16, global = 1.0028e-17, cumulative = -2.3215e-13
ExecutionTime = 1.34 s  ClockTime = 4 s

    functionObjects::mag mag(U) writing field: mag(U)
End

