/*---------------------------------------------------------------------------*\
| =========                 |                                                 |
| \\      /  F ield         | OpenFOAM: The Open Source CFD Toolbox           |
|  \\    /   O peration     | Version:  2012                                  |
|   \\  /    A nd           | Website:  www.openfoam.com                      |
|    \\/     M anipulation  |                                                 |
\*---------------------------------------------------------------------------*/
Build  : _269d0ffd5c-20210619 OPENFOAM=2012 patch=210618
Arch   : "LSB;label=32;scalar=64"
Exec   : mhdPimpleFoam
Date   : Apr 04 2022
Time   : 13:18:06
Host   : gabrielmarconcini-Lenovo-G50-80
PID    : 54565
I/O    : uncollated
Case   : /home/gabrielmarconcini/Documentos/TCC/PTCC/ShockTube/sim/NewSolver/ShockTube4_1000
nProcs : 1
trapFpe: Floating point exception trapping enabled (FOAM_SIGFPE).
fileModificationChecking : Monitoring run-time modified files using timeStampMaster (fileModificationSkew 5, maxFileModificationPolls 20)
allowSystemOperations : Allowing user-supplied system call operations

// * * * * * * * * * * * * * * * * * * * * * * * * * * * * * * * * * * * * * //
Create time

Create mesh for time = 0


PIMPLE: Operating solver in PISO mode

Reading thermophysical properties

Selecting thermodynamics package 
{
    type            hePsiThermo;
    mixture         pureMixture;
    transport       const;
    thermo          eConst;
    equationOfState perfectGas;
    specie          specie;
    energy          sensibleInternalEnergy;
}

Reading field U

Reading/calculating face flux field phi

Creating turbulence model

Selecting turbulence model type laminar
Selecting laminar stress model Stokes
Creating field dpdt

Creating field kinetic energy K

No MRF models present

No finite volume options present
Courant Number mean: 0 max: 0

Starting time loop

Courant Number mean: 0 max: 0
Time = 1e-05

PIMPLE: iteration 1
diagonal:  Solving for rho, Initial residual = 0, Final residual = 0, No Iterations 0
smoothSolver:  Solving for Ux, Initial residual = 1, Final residual = 0, No Iterations 1
smoothSolver:  Solving for e, Initial residual = 2.85024e-17, Final residual = 2.85024e-17, No Iterations 0
smoothSolver:  Solving for p, Initial residual = 0.000178178, Final residual = 6.67182e-17, No Iterations 6
diagonal:  Solving for rho, Initial residual = 0, Final residual = 0, No Iterations 0
time step continuity errors : sum local = 1.28481e-16, global = -8.60413e-17, cumulative = -8.60413e-17
smoothSolver:  Solving for p, Initial residual = 3.90658e-05, Final residual = 5.10426e-17, No Iterations 6
diagonal:  Solving for rho, Initial residual = 0, Final residual = 0, No Iterations 0
time step continuity errors : sum local = 1.12059e-16, global = -3.35113e-17, cumulative = -1.19553e-16
ExecutionTime = 0.04 s  ClockTime = 0 s

Courant Number mean: 0.000337358 max: 0.241823
Time = 2e-05

PIMPLE: iteration 1
diagonal:  Solving for rho, Initial residual = 0, Final residual = 0, No Iterations 0
smoothSolver:  Solving for Ux, Initial residual = 0.0836757, Final residual = 1.51386e-17, No Iterations 1
smoothSolver:  Solving for e, Initial residual = 0.000895083, Final residual = 1.12931e-17, No Iterations 3
smoothSolver:  Solving for p, Initial residual = 0.000427024, Final residual = 9.55996e-17, No Iterations 6
diagonal:  Solving for rho, Initial residual = 0, Final residual = 0, No Iterations 0
time step continuity errors : sum local = 2.14769e-16, global = -1.04021e-16, cumulative = -2.23574e-16
smoothSolver:  Solving for p, Initial residual = 4.165e-05, Final residual = 3.88009e-16, No Iterations 5
diagonal:  Solving for rho, Initial residual = 0, Final residual = 0, No Iterations 0
time step continuity errors : sum local = 7.16228e-16, global = 2.42865e-16, cumulative = 1.92907e-17
ExecutionTime = 0.05 s  ClockTime = 0 s

Courant Number mean: 0.000667156 max: 0.321364
Time = 3e-05

PIMPLE: iteration 1
diagonal:  Solving for rho, Initial residual = 0, Final residual = 0, No Iterations 0
smoothSolver:  Solving for Ux, Initial residual = 0.0682179, Final residual = 9.5871e-18, No Iterations 1
smoothSolver:  Solving for e, Initial residual = 0.000992244, Final residual = 2.72798e-16, No Iterations 7
smoothSolver:  Solving for p, Initial residual = 0.000460787, Final residual = 8.6023e-17, No Iterations 6
diagonal:  Solving for rho, Initial residual = 0, Final residual = 0, No Iterations 0
time step continuity errors : sum local = 2.07251e-16, global = -9.69974e-17, cumulative = -7.77067e-17
smoothSolver:  Solving for p, Initial residual = 5.3927e-05, Final residual = 3.22496e-16, No Iterations 5
diagonal:  Solving for rho, Initial residual = 0, Final residual = 0, No Iterations 0
time step continuity errors : sum local = 6.07705e-16, global = 3.04496e-16, cumulative = 2.26789e-16
ExecutionTime = 0.05 s  ClockTime = 0 s

Courant Number mean: 0.000809083 max: 0.285086
Time = 4e-05

PIMPLE: iteration 1
diagonal:  Solving for rho, Initial residual = 0, Final residual = 0, No Iterations 0
smoothSolver:  Solving for Ux, Initial residual = 0.0556205, Final residual = 1.30006e-17, No Iterations 1
smoothSolver:  Solving for e, Initial residual = 0.000804479, Final residual = 2.48709e-17, No Iterations 5
smoothSolver:  Solving for p, Initial residual = 0.000397124, Final residual = 7.8555e-17, No Iterations 6
diagonal:  Solving for rho, Initial residual = 0, Final residual = 0, No Iterations 0
time step continuity errors : sum local = 1.8613e-16, global = -8.03283e-17, cumulative = 1.46461e-16
smoothSolver:  Solving for p, Initial residual = 4.87857e-05, Final residual = 3.03361e-16, No Iterations 5
diagonal:  Solving for rho, Initial residual = 0, Final residual = 0, No Iterations 0
time step continuity errors : sum local = 5.73774e-16, global = 3.55146e-16, cumulative = 5.01607e-16
ExecutionTime = 0.05 s  ClockTime = 0 s

Courant Number mean: 0.000980088 max: 0.267309
Time = 5e-05

PIMPLE: iteration 1
diagonal:  Solving for rho, Initial residual = 0, Final residual = 0, No Iterations 0
smoothSolver:  Solving for Ux, Initial residual = 0.0445494, Final residual = 1.13557e-17, No Iterations 1
smoothSolver:  Solving for e, Initial residual = 0.000748499, Final residual = 1.35946e-16, No Iterations 5
smoothSolver:  Solving for p, Initial residual = 0.000348382, Final residual = 7.53207e-17, No Iterations 6
diagonal:  Solving for rho, Initial residual = 0, Final residual = 0, No Iterations 0
time step continuity errors : sum local = 1.76782e-16, global = -6.41538e-17, cumulative = 4.37453e-16
smoothSolver:  Solving for p, Initial residual = 3.98337e-05, Final residual = 2.7357e-16, No Iterations 5
diagonal:  Solving for rho, Initial residual = 0, Final residual = 0, No Iterations 0
time step continuity errors : sum local = 5.16421e-16, global = 3.43893e-16, cumulative = 7.81346e-16
ExecutionTime = 0.05 s  ClockTime = 0 s

Courant Number mean: 0.00116753 max: 0.265321
Time = 6e-05

PIMPLE: iteration 1
diagonal:  Solving for rho, Initial residual = 0, Final residual = 0, No Iterations 0
smoothSolver:  Solving for Ux, Initial residual = 0.0365939, Final residual = 2.85249e-17, No Iterations 1
smoothSolver:  Solving for e, Initial residual = 0.000808572, Final residual = 3.92749e-16, No Iterations 6
smoothSolver:  Solving for p, Initial residual = 0.000325603, Final residual = 7.38285e-17, No Iterations 6
diagonal:  Solving for rho, Initial residual = 0, Final residual = 0, No Iterations 0
time step continuity errors : sum local = 1.751e-16, global = -5.99989e-17, cumulative = 7.21347e-16
smoothSolver:  Solving for p, Initial residual = 3.92943e-05, Final residual = 2.60475e-16, No Iterations 5
diagonal:  Solving for rho, Initial residual = 0, Final residual = 0, No Iterations 0
time step continuity errors : sum local = 4.87658e-16, global = 3.10233e-16, cumulative = 1.03158e-15
ExecutionTime = 0.06 s  ClockTime = 0 s

Courant Number mean: 0.00136223 max: 0.278385
Time = 7e-05

PIMPLE: iteration 1
diagonal:  Solving for rho, Initial residual = 0, Final residual = 0, No Iterations 0
smoothSolver:  Solving for Ux, Initial residual = 0.0308205, Final residual = 1.14215e-17, No Iterations 1
smoothSolver:  Solving for e, Initial residual = 0.000813258, Final residual = 1.2998e-16, No Iterations 6
smoothSolver:  Solving for p, Initial residual = 0.00033511, Final residual = 7.16788e-17, No Iterations 6
diagonal:  Solving for rho, Initial residual = 0, Final residual = 0, No Iterations 0
time step continuity errors : sum local = 1.66938e-16, global = -4.72869e-17, cumulative = 9.84294e-16
smoothSolver:  Solving for p, Initial residual = 3.26662e-05, Final residual = 2.38682e-16, No Iterations 5
diagonal:  Solving for rho, Initial residual = 0, Final residual = 0, No Iterations 0
time step continuity errors : sum local = 4.51772e-16, global = 2.92352e-16, cumulative = 1.27665e-15
ExecutionTime = 0.06 s  ClockTime = 0 s

Courant Number mean: 0.00156078 max: 0.285433
Time = 8e-05

PIMPLE: iteration 1
diagonal:  Solving for rho, Initial residual = 0, Final residual = 0, No Iterations 0
smoothSolver:  Solving for Ux, Initial residual = 0.027442, Final residual = 1.00374e-17, No Iterations 1
smoothSolver:  Solving for e, Initial residual = 0.000824021, Final residual = 5.79071e-17, No Iterations 7
smoothSolver:  Solving for p, Initial residual = 0.000326888, Final residual = 7.18953e-17, No Iterations 6
diagonal:  Solving for rho, Initial residual = 0, Final residual = 0, No Iterations 0
time step continuity errors : sum local = 1.6909e-16, global = -5.37418e-17, cumulative = 1.2229e-15
smoothSolver:  Solving for p, Initial residual = 3.21475e-05, Final residual = 2.29979e-16, No Iterations 5
diagonal:  Solving for rho, Initial residual = 0, Final residual = 0, No Iterations 0
time step continuity errors : sum local = 4.31591e-16, global = 2.78997e-16, cumulative = 1.5019e-15
ExecutionTime = 0.06 s  ClockTime = 0 s

Courant Number mean: 0.00176121 max: 0.287611
Time = 9e-05

PIMPLE: iteration 1
diagonal:  Solving for rho, Initial residual = 0, Final residual = 0, No Iterations 0
smoothSolver:  Solving for Ux, Initial residual = 0.0247056, Final residual = 1.04825e-17, No Iterations 1
smoothSolver:  Solving for e, Initial residual = 0.000879168, Final residual = 8.80919e-16, No Iterations 6
smoothSolver:  Solving for p, Initial residual = 0.000321829, Final residual = 7.1278e-17, No Iterations 6
diagonal:  Solving for rho, Initial residual = 0, Final residual = 0, No Iterations 0
time step continuity errors : sum local = 1.61003e-16, global = -4.88202e-17, cumulative = 1.45308e-15
smoothSolver:  Solving for p, Initial residual = 3.10013e-05, Final residual = 2.1925e-16, No Iterations 5
diagonal:  Solving for rho, Initial residual = 0, Final residual = 0, No Iterations 0
time step continuity errors : sum local = 4.06984e-16, global = 2.5063e-16, cumulative = 1.70371e-15
ExecutionTime = 0.06 s  ClockTime = 0 s

Courant Number mean: 0.0019626 max: 0.290757
Time = 0.0001

PIMPLE: iteration 1
diagonal:  Solving for rho, Initial residual = 0, Final residual = 0, No Iterations 0
smoothSolver:  Solving for Ux, Initial residual = 0.0215941, Final residual = 1.29559e-17, No Iterations 1
smoothSolver:  Solving for e, Initial residual = 0.000884345, Final residual = 4.92129e-17, No Iterations 7
smoothSolver:  Solving for p, Initial residual = 0.000317882, Final residual = 7.02025e-17, No Iterations 6
diagonal:  Solving for rho, Initial residual = 0, Final residual = 0, No Iterations 0
time step continuity errors : sum local = 1.62338e-16, global = -4.79299e-17, cumulative = 1.65578e-15
smoothSolver:  Solving for p, Initial residual = 3.24286e-05, Final residual = 2.19243e-16, No Iterations 5
diagonal:  Solving for rho, Initial residual = 0, Final residual = 0, No Iterations 0
time step continuity errors : sum local = 4.1141e-16, global = 2.40614e-16, cumulative = 1.8964e-15
ExecutionTime = 0.06 s  ClockTime = 0 s

Courant Number mean: 0.00216456 max: 0.29557
Time = 0.00011

PIMPLE: iteration 1
diagonal:  Solving for rho, Initial residual = 0, Final residual = 0, No Iterations 0
smoothSolver:  Solving for Ux, Initial residual = 0.0196035, Final residual = 1.54895e-17, No Iterations 1
smoothSolver:  Solving for e, Initial residual = 0.000963665, Final residual = 1.30592e-16, No Iterations 7
smoothSolver:  Solving for p, Initial residual = 0.000320545, Final residual = 6.84802e-17, No Iterations 6
diagonal:  Solving for rho, Initial residual = 0, Final residual = 0, No Iterations 0
time step continuity errors : sum local = 1.61399e-16, global = -5.2431e-17, cumulative = 1.84396e-15
smoothSolver:  Solving for p, Initial residual = 3.10625e-05, Final residual = 2.11582e-16, No Iterations 5
diagonal:  Solving for rho, Initial residual = 0, Final residual = 0, No Iterations 0
time step continuity errors : sum local = 3.99688e-16, global = 2.20878e-16, cumulative = 2.06484e-15
ExecutionTime = 0.07 s  ClockTime = 0 s

Courant Number mean: 0.00236671 max: 0.295653
Time = 0.00012

PIMPLE: iteration 1
diagonal:  Solving for rho, Initial residual = 0, Final residual = 0, No Iterations 0
smoothSolver:  Solving for Ux, Initial residual = 0.0178828, Final residual = 1.49835e-17, No Iterations 1
smoothSolver:  Solving for e, Initial residual = 0.000968321, Final residual = 1.16532e-16, No Iterations 7
smoothSolver:  Solving for p, Initial residual = 0.000319799, Final residual = 6.94068e-17, No Iterations 6
diagonal:  Solving for rho, Initial residual = 0, Final residual = 0, No Iterations 0
time step continuity errors : sum local = 1.58925e-16, global = -5.41128e-17, cumulative = 2.01073e-15
smoothSolver:  Solving for p, Initial residual = 3.14593e-05, Final residual = 2.12782e-16, No Iterations 5
diagonal:  Solving for rho, Initial residual = 0, Final residual = 0, No Iterations 0
time step continuity errors : sum local = 3.96646e-16, global = 2.04827e-16, cumulative = 2.21556e-15
ExecutionTime = 0.07 s  ClockTime = 0 s

Courant Number mean: 0.00256897 max: 0.297471
Time = 0.00013

PIMPLE: iteration 1
diagonal:  Solving for rho, Initial residual = 0, Final residual = 0, No Iterations 0
smoothSolver:  Solving for Ux, Initial residual = 0.0163841, Final residual = 1.97648e-17, No Iterations 1
smoothSolver:  Solving for e, Initial residual = 0.00100484, Final residual = 2.53296e-16, No Iterations 7
smoothSolver:  Solving for p, Initial residual = 0.000320532, Final residual = 6.7633e-17, No Iterations 6
diagonal:  Solving for rho, Initial residual = 0, Final residual = 0, No Iterations 0
time step continuity errors : sum local = 1.56007e-16, global = -4.46653e-17, cumulative = 2.17089e-15
smoothSolver:  Solving for p, Initial residual = 3.00242e-05, Final residual = 2.03236e-16, No Iterations 5
diagonal:  Solving for rho, Initial residual = 0, Final residual = 0, No Iterations 0
time step continuity errors : sum local = 3.84082e-16, global = 1.95231e-16, cumulative = 2.36612e-15
ExecutionTime = 0.07 s  ClockTime = 0 s

Courant Number mean: 0.00277121 max: 0.298485
Time = 0.00014

PIMPLE: iteration 1
diagonal:  Solving for rho, Initial residual = 0, Final residual = 0, No Iterations 0
smoothSolver:  Solving for Ux, Initial residual = 0.0150114, Final residual = 1.88532e-17, No Iterations 1
smoothSolver:  Solving for e, Initial residual = 0.00099572, Final residual = 2.14983e-16, No Iterations 7
smoothSolver:  Solving for p, Initial residual = 0.000325816, Final residual = 7.01502e-17, No Iterations 6
diagonal:  Solving for rho, Initial residual = 0, Final residual = 0, No Iterations 0
time step continuity errors : sum local = 1.53707e-16, global = -4.34535e-17, cumulative = 2.32267e-15
smoothSolver:  Solving for p, Initial residual = 3.2038e-05, Final residual = 2.07182e-16, No Iterations 5
diagonal:  Solving for rho, Initial residual = 0, Final residual = 0, No Iterations 0
time step continuity errors : sum local = 3.94544e-16, global = 1.7928e-16, cumulative = 2.50195e-15
ExecutionTime = 0.07 s  ClockTime = 0 s

Courant Number mean: 0.00297348 max: 0.297479
Time = 0.00015

PIMPLE: iteration 1
diagonal:  Solving for rho, Initial residual = 0, Final residual = 0, No Iterations 0
smoothSolver:  Solving for Ux, Initial residual = 0.0138264, Final residual = 1.11279e-17, No Iterations 1
smoothSolver:  Solving for e, Initial residual = 0.00100982, Final residual = 4.08812e-16, No Iterations 7
smoothSolver:  Solving for p, Initial residual = 0.000320411, Final residual = 6.67204e-17, No Iterations 6
diagonal:  Solving for rho, Initial residual = 0, Final residual = 0, No Iterations 0
time step continuity errors : sum local = 1.51382e-16, global = -4.86471e-17, cumulative = 2.4533e-15
smoothSolver:  Solving for p, Initial residual = 2.86229e-05, Final residual = 1.99312e-16, No Iterations 5
diagonal:  Solving for rho, Initial residual = 0, Final residual = 0, No Iterations 0
time step continuity errors : sum local = 3.83464e-16, global = 1.67804e-16, cumulative = 2.62111e-15
ExecutionTime = 0.08 s  ClockTime = 0 s

Courant Number mean: 0.00317581 max: 0.298918
Time = 0.00016

PIMPLE: iteration 1
diagonal:  Solving for rho, Initial residual = 0, Final residual = 0, No Iterations 0
smoothSolver:  Solving for Ux, Initial residual = 0.0128956, Final residual = 1.33509e-17, No Iterations 1
smoothSolver:  Solving for e, Initial residual = 0.000998608, Final residual = 3.29927e-16, No Iterations 7
smoothSolver:  Solving for p, Initial residual = 0.000323011, Final residual = 6.87886e-17, No Iterations 6
diagonal:  Solving for rho, Initial residual = 0, Final residual = 0, No Iterations 0
time step continuity errors : sum local = 1.55389e-16, global = -4.00405e-17, cumulative = 2.58107e-15
smoothSolver:  Solving for p, Initial residual = 3.03721e-05, Final residual = 2.05252e-16, No Iterations 5
diagonal:  Solving for rho, Initial residual = 0, Final residual = 0, No Iterations 0
time step continuity errors : sum local = 3.89152e-16, global = 1.52421e-16, cumulative = 2.73349e-15
ExecutionTime = 0.08 s  ClockTime = 0 s

Courant Number mean: 0.0033782 max: 0.297246
Time = 0.00017

PIMPLE: iteration 1
diagonal:  Solving for rho, Initial residual = 0, Final residual = 0, No Iterations 0
smoothSolver:  Solving for Ux, Initial residual = 0.0120129, Final residual = 1.05889e-17, No Iterations 1
smoothSolver:  Solving for e, Initial residual = 0.00101217, Final residual = 3.83078e-16, No Iterations 7
smoothSolver:  Solving for p, Initial residual = 0.000321755, Final residual = 6.82282e-17, No Iterations 6
diagonal:  Solving for rho, Initial residual = 0, Final residual = 0, No Iterations 0
time step continuity errors : sum local = 1.50195e-16, global = -4.21674e-17, cumulative = 2.69132e-15
smoothSolver:  Solving for p, Initial residual = 2.86066e-05, Final residual = 1.99682e-16, No Iterations 5
diagonal:  Solving for rho, Initial residual = 0, Final residual = 0, No Iterations 0
time step continuity errors : sum local = 3.79531e-16, global = 1.33353e-16, cumulative = 2.82467e-15
ExecutionTime = 0.08 s  ClockTime = 0 s

Courant Number mean: 0.00358069 max: 0.298309
Time = 0.00018

PIMPLE: iteration 1
diagonal:  Solving for rho, Initial residual = 0, Final residual = 0, No Iterations 0
smoothSolver:  Solving for Ux, Initial residual = 0.0113475, Final residual = 1.6171e-17, No Iterations 1
smoothSolver:  Solving for e, Initial residual = 0.00100223, Final residual = 3.6203e-16, No Iterations 7
smoothSolver:  Solving for p, Initial residual = 0.000320444, Final residual = 6.47456e-17, No Iterations 6
diagonal:  Solving for rho, Initial residual = 0, Final residual = 0, No Iterations 0
time step continuity errors : sum local = 1.55339e-16, global = -4.91417e-17, cumulative = 2.77553e-15
smoothSolver:  Solving for p, Initial residual = 2.89291e-05, Final residual = 2.01162e-16, No Iterations 5
diagonal:  Solving for rho, Initial residual = 0, Final residual = 0, No Iterations 0
time step continuity errors : sum local = 3.83513e-16, global = 1.34218e-16, cumulative = 2.90975e-15
ExecutionTime = 0.08 s  ClockTime = 0 s

Courant Number mean: 0.00378327 max: 0.296929
Time = 0.00019

PIMPLE: iteration 1
diagonal:  Solving for rho, Initial residual = 0, Final residual = 0, No Iterations 0
smoothSolver:  Solving for Ux, Initial residual = 0.0107445, Final residual = 1.65534e-17, No Iterations 1
smoothSolver:  Solving for e, Initial residual = 0.00101488, Final residual = 4.47055e-16, No Iterations 7
smoothSolver:  Solving for p, Initial residual = 0.000315809, Final residual = 6.44079e-17, No Iterations 6
diagonal:  Solving for rho, Initial residual = 0, Final residual = 0, No Iterations 0
time step continuity errors : sum local = 1.54474e-16, global = -4.25878e-17, cumulative = 2.86716e-15
smoothSolver:  Solving for p, Initial residual = 2.68628e-05, Final residual = 1.9583e-16, No Iterations 5
diagonal:  Solving for rho, Initial residual = 0, Final residual = 0, No Iterations 0
time step continuity errors : sum local = 3.79606e-16, global = 1.18835e-16, cumulative = 2.986e-15
ExecutionTime = 0.08 s  ClockTime = 0 s

Courant Number mean: 0.00398599 max: 0.297604
Time = 0.0002

PIMPLE: iteration 1
diagonal:  Solving for rho, Initial residual = 0, Final residual = 0, No Iterations 0
smoothSolver:  Solving for Ux, Initial residual = 0.0102422, Final residual = 2.46925e-17, No Iterations 1
smoothSolver:  Solving for e, Initial residual = 0.00101458, Final residual = 4.01309e-16, No Iterations 7
smoothSolver:  Solving for p, Initial residual = 0.000318122, Final residual = 6.63449e-17, No Iterations 6
diagonal:  Solving for rho, Initial residual = 0, Final residual = 0, No Iterations 0
time step continuity errors : sum local = 1.53658e-16, global = -4.88944e-17, cumulative = 2.9371e-15
smoothSolver:  Solving for p, Initial residual = 2.76086e-05, Final residual = 2.01577e-16, No Iterations 5
diagonal:  Solving for rho, Initial residual = 0, Final residual = 0, No Iterations 0
time step continuity errors : sum local = 3.824e-16, global = 1.17228e-16, cumulative = 3.05433e-15
ExecutionTime = 0.09 s  ClockTime = 0 s

Courant Number mean: 0.0041888 max: 0.296419
Time = 0.00021

PIMPLE: iteration 1
diagonal:  Solving for rho, Initial residual = 0, Final residual = 0, No Iterations 0
smoothSolver:  Solving for Ux, Initial residual = 0.00976276, Final residual = 1.63213e-17, No Iterations 1
smoothSolver:  Solving for e, Initial residual = 0.0010274, Final residual = 3.33067e-16, No Iterations 7
smoothSolver:  Solving for p, Initial residual = 0.000312492, Final residual = 6.71106e-17, No Iterations 6
diagonal:  Solving for rho, Initial residual = 0, Final residual = 0, No Iterations 0
time step continuity errors : sum local = 1.55216e-16, global = -4.95127e-17, cumulative = 3.00482e-15
smoothSolver:  Solving for p, Initial residual = 2.59548e-05, Final residual = 1.97384e-16, No Iterations 5
diagonal:  Solving for rho, Initial residual = 0, Final residual = 0, No Iterations 0
time step continuity errors : sum local = 3.79111e-16, global = 1.03551e-16, cumulative = 3.10837e-15
ExecutionTime = 0.09 s  ClockTime = 0 s

Courant Number mean: 0.00439174 max: 0.297106
Time = 0.00022

PIMPLE: iteration 1
diagonal:  Solving for rho, Initial residual = 0, Final residual = 0, No Iterations 0
smoothSolver:  Solving for Ux, Initial residual = 0.00933264, Final residual = 2.05416e-17, No Iterations 1
smoothSolver:  Solving for e, Initial residual = 0.00103458, Final residual = 4.27948e-16, No Iterations 7
smoothSolver:  Solving for p, Initial residual = 0.000314497, Final residual = 6.58286e-17, No Iterations 6
diagonal:  Solving for rho, Initial residual = 0, Final residual = 0, No Iterations 0
time step continuity errors : sum local = 1.60533e-16, global = -4.88449e-17, cumulative = 3.05952e-15
smoothSolver:  Solving for p, Initial residual = 2.63791e-05, Final residual = 1.99702e-16, No Iterations 5
diagonal:  Solving for rho, Initial residual = 0, Final residual = 0, No Iterations 0
time step continuity errors : sum local = 3.87767e-16, global = 8.54972e-17, cumulative = 3.14502e-15
ExecutionTime = 0.09 s  ClockTime = 0 s

Courant Number mean: 0.00459476 max: 0.296155
Time = 0.00023

PIMPLE: iteration 1
diagonal:  Solving for rho, Initial residual = 0, Final residual = 0, No Iterations 0
smoothSolver:  Solving for Ux, Initial residual = 0.00891793, Final residual = 1.86524e-17, No Iterations 1
smoothSolver:  Solving for e, Initial residual = 0.00104543, Final residual = 3.83581e-16, No Iterations 7
smoothSolver:  Solving for p, Initial residual = 0.000310355, Final residual = 6.81966e-17, No Iterations 6
diagonal:  Solving for rho, Initial residual = 0, Final residual = 0, No Iterations 0
time step continuity errors : sum local = 1.60162e-16, global = -3.86308e-17, cumulative = 3.10639e-15
smoothSolver:  Solving for p, Initial residual = 2.49806e-05, Final residual = 1.96425e-16, No Iterations 5
diagonal:  Solving for rho, Initial residual = 0, Final residual = 0, No Iterations 0
time step continuity errors : sum local = 3.84725e-16, global = 8.85392e-17, cumulative = 3.19493e-15
ExecutionTime = 0.09 s  ClockTime = 0 s

Courant Number mean: 0.00479789 max: 0.296581
Time = 0.00024

PIMPLE: iteration 1
diagonal:  Solving for rho, Initial residual = 0, Final residual = 0, No Iterations 0
smoothSolver:  Solving for Ux, Initial residual = 0.00856763, Final residual = 1.39713e-17, No Iterations 1
smoothSolver:  Solving for e, Initial residual = 0.00105131, Final residual = 4.68556e-16, No Iterations 7
smoothSolver:  Solving for p, Initial residual = 0.000311963, Final residual = 6.73581e-17, No Iterations 6
diagonal:  Solving for rho, Initial residual = 0, Final residual = 0, No Iterations 0
time step continuity errors : sum local = 1.5623e-16, global = -3.43028e-17, cumulative = 3.16063e-15
smoothSolver:  Solving for p, Initial residual = 2.52089e-05, Final residual = 1.98139e-16, No Iterations 5
diagonal:  Solving for rho, Initial residual = 0, Final residual = 0, No Iterations 0
time step continuity errors : sum local = 3.79606e-16, global = 8.94048e-17, cumulative = 3.25003e-15
ExecutionTime = 0.1 s  ClockTime = 0 s

Courant Number mean: 0.00500109 max: 0.295676
Time = 0.00025

PIMPLE: iteration 1
diagonal:  Solving for rho, Initial residual = 0, Final residual = 0, No Iterations 0
smoothSolver:  Solving for Ux, Initial residual = 0.0081989, Final residual = 1.59107e-17, No Iterations 1
smoothSolver:  Solving for e, Initial residual = 0.00105366, Final residual = 4.26562e-16, No Iterations 7
smoothSolver:  Solving for p, Initial residual = 0.00030855, Final residual = 6.61378e-17, No Iterations 6
diagonal:  Solving for rho, Initial residual = 0, Final residual = 0, No Iterations 0
time step continuity errors : sum local = 1.52372e-16, global = -3.00489e-17, cumulative = 3.21998e-15
smoothSolver:  Solving for p, Initial residual = 2.42857e-05, Final residual = 1.96342e-16, No Iterations 5
diagonal:  Solving for rho, Initial residual = 0, Final residual = 0, No Iterations 0
time step continuity errors : sum local = 3.73645e-16, global = 8.62639e-17, cumulative = 3.30625e-15
ExecutionTime = 0.1 s  ClockTime = 0 s

Courant Number mean: 0.00520442 max: 0.296102
Time = 0.00026

PIMPLE: iteration 1
diagonal:  Solving for rho, Initial residual = 0, Final residual = 0, No Iterations 0
smoothSolver:  Solving for Ux, Initial residual = 0.00789554, Final residual = 1.51086e-17, No Iterations 1
smoothSolver:  Solving for e, Initial residual = 0.00105896, Final residual = 4.80174e-16, No Iterations 7
smoothSolver:  Solving for p, Initial residual = 0.000311115, Final residual = 6.31253e-17, No Iterations 6
diagonal:  Solving for rho, Initial residual = 0, Final residual = 0, No Iterations 0
time step continuity errors : sum local = 1.4426e-16, global = -2.995e-17, cumulative = 3.2763e-15
smoothSolver:  Solving for p, Initial residual = 2.44624e-05, Final residual = 1.97249e-16, No Iterations 5
diagonal:  Solving for rho, Initial residual = 0, Final residual = 0, No Iterations 0
time step continuity errors : sum local = 3.69466e-16, global = 8.53488e-17, cumulative = 3.36165e-15
ExecutionTime = 0.1 s  ClockTime = 0 s

Courant Number mean: 0.00540781 max: 0.295213
Time = 0.00027

PIMPLE: iteration 1
diagonal:  Solving for rho, Initial residual = 0, Final residual = 0, No Iterations 0
smoothSolver:  Solving for Ux, Initial residual = 0.00758022, Final residual = 1.65951e-17, No Iterations 1
smoothSolver:  Solving for e, Initial residual = 0.00105894, Final residual = 4.33142e-16, No Iterations 7
smoothSolver:  Solving for p, Initial residual = 0.000307735, Final residual = 6.43993e-17, No Iterations 6
diagonal:  Solving for rho, Initial residual = 0, Final residual = 0, No Iterations 0
time step continuity errors : sum local = 1.52372e-16, global = -2.87134e-17, cumulative = 3.33293e-15
smoothSolver:  Solving for p, Initial residual = 2.36028e-05, Final residual = 1.95814e-16, No Iterations 5
diagonal:  Solving for rho, Initial residual = 0, Final residual = 0, No Iterations 0
time step continuity errors : sum local = 3.67462e-16, global = 8.6066e-17, cumulative = 3.419e-15
ExecutionTime = 0.1 s  ClockTime = 0 s

Courant Number mean: 0.00561131 max: 0.295705
Time = 0.00028

PIMPLE: iteration 1
diagonal:  Solving for rho, Initial residual = 0, Final residual = 0, No Iterations 0
smoothSolver:  Solving for Ux, Initial residual = 0.00730115, Final residual = 1.47566e-17, No Iterations 1
smoothSolver:  Solving for e, Initial residual = 0.00105908, Final residual = 4.92011e-16, No Iterations 7
smoothSolver:  Solving for p, Initial residual = 0.000309148, Final residual = 6.46203e-17, No Iterations 6
diagonal:  Solving for rho, Initial residual = 0, Final residual = 0, No Iterations 0
time step continuity errors : sum local = 1.60805e-16, global = -4.12029e-17, cumulative = 3.3778e-15
smoothSolver:  Solving for p, Initial residual = 2.37267e-05, Final residual = 1.95296e-16, No Iterations 5
diagonal:  Solving for rho, Initial residual = 0, Final residual = 0, No Iterations 0
time step continuity errors : sum local = 3.79606e-16, global = 6.79378e-17, cumulative = 3.44573e-15
ExecutionTime = 0.11 s  ClockTime = 0 s

Courant Number mean: 0.00581488 max: 0.294804
Time = 0.00029

PIMPLE: iteration 1
diagonal:  Solving for rho, Initial residual = 0, Final residual = 0, No Iterations 0
smoothSolver:  Solving for Ux, Initial residual = 0.00703255, Final residual = 1.69068e-17, No Iterations 1
smoothSolver:  Solving for e, Initial residual = 0.00105793, Final residual = 4.63352e-16, No Iterations 7
smoothSolver:  Solving for p, Initial residual = 0.000306666, Final residual = 6.20819e-17, No Iterations 6
diagonal:  Solving for rho, Initial residual = 0, Final residual = 0, No Iterations 0
time step continuity errors : sum local = 1.47079e-16, global = -3.70727e-17, cumulative = 3.40866e-15
smoothSolver:  Solving for p, Initial residual = 2.31531e-05, Final residual = 1.94965e-16, No Iterations 5
diagonal:  Solving for rho, Initial residual = 0, Final residual = 0, No Iterations 0
time step continuity errors : sum local = 3.71419e-16, global = 6.93969e-17, cumulative = 3.47806e-15
ExecutionTime = 0.11 s  ClockTime = 0 s

Courant Number mean: 0.00601856 max: 0.295327
Time = 0.0003

PIMPLE: iteration 1
diagonal:  Solving for rho, Initial residual = 0, Final residual = 0, No Iterations 0
smoothSolver:  Solving for Ux, Initial residual = 0.00679481, Final residual = 1.79727e-17, No Iterations 1
smoothSolver:  Solving for e, Initial residual = 0.00105965, Final residual = 5.18167e-16, No Iterations 7
smoothSolver:  Solving for p, Initial residual = 0.000308891, Final residual = 6.38866e-17, No Iterations 6
diagonal:  Solving for rho, Initial residual = 0, Final residual = 0, No Iterations 0
time step continuity errors : sum local = 1.49651e-16, global = -3.00984e-17, cumulative = 3.44796e-15
smoothSolver:  Solving for p, Initial residual = 2.34912e-05, Final residual = 1.94096e-16, No Iterations 5
diagonal:  Solving for rho, Initial residual = 0, Final residual = 0, No Iterations 0
time step continuity errors : sum local = 3.73571e-16, global = 6.52667e-17, cumulative = 3.51323e-15
ExecutionTime = 0.11 s  ClockTime = 0 s

Courant Number mean: 0.00622228 max: 0.2944
Time = 0.00031

PIMPLE: iteration 1
diagonal:  Solving for rho, Initial residual = 0, Final residual = 0, No Iterations 0
smoothSolver:  Solving for Ux, Initial residual = 0.00656303, Final residual = 1.38397e-17, No Iterations 1
smoothSolver:  Solving for e, Initial residual = 0.00106081, Final residual = 4.78555e-16, No Iterations 7
smoothSolver:  Solving for p, Initial residual = 0.00030768, Final residual = 6.10189e-17, No Iterations 6
diagonal:  Solving for rho, Initial residual = 0, Final residual = 0, No Iterations 0
time step continuity errors : sum local = 1.47796e-16, global = -4.14502e-17, cumulative = 3.47178e-15
smoothSolver:  Solving for p, Initial residual = 2.2926e-05, Final residual = 1.92728e-16, No Iterations 5
diagonal:  Solving for rho, Initial residual = 0, Final residual = 0, No Iterations 0
time step continuity errors : sum local = 3.70307e-16, global = 4.91912e-17, cumulative = 3.52097e-15
ExecutionTime = 0.11 s  ClockTime = 0 s

Courant Number mean: 0.00642611 max: 0.294992
Time = 0.00032

PIMPLE: iteration 1
diagonal:  Solving for rho, Initial residual = 0, Final residual = 0, No Iterations 0
smoothSolver:  Solving for Ux, Initial residual = 0.00634995, Final residual = 1.48267e-17, No Iterations 1
smoothSolver:  Solving for e, Initial residual = 0.00106539, Final residual = 5.22131e-16, No Iterations 7
smoothSolver:  Solving for p, Initial residual = 0.000309151, Final residual = 6.1914e-17, No Iterations 6
diagonal:  Solving for rho, Initial residual = 0, Final residual = 0, No Iterations 0
time step continuity errors : sum local = 1.46832e-16, global = -3.97932e-17, cumulative = 3.48117e-15
smoothSolver:  Solving for p, Initial residual = 2.30423e-05, Final residual = 1.92275e-16, No Iterations 5
diagonal:  Solving for rho, Initial residual = 0, Final residual = 0, No Iterations 0
time step continuity errors : sum local = 3.62961e-16, global = 5.19859e-17, cumulative = 3.53316e-15
ExecutionTime = 0.12 s  ClockTime = 0 s

Courant Number mean: 0.00662998 max: 0.294022
Time = 0.00033

PIMPLE: iteration 1
diagonal:  Solving for rho, Initial residual = 0, Final residual = 0, No Iterations 0
smoothSolver:  Solving for Ux, Initial residual = 0.00615238, Final residual = 1.87591e-17, No Iterations 1
smoothSolver:  Solving for e, Initial residual = 0.0010647, Final residual = 5.01688e-16, No Iterations 7
smoothSolver:  Solving for p, Initial residual = 0.00030747, Final residual = 6.38369e-17, No Iterations 6
diagonal:  Solving for rho, Initial residual = 0, Final residual = 0, No Iterations 0
time step continuity errors : sum local = 1.54498e-16, global = -4.05846e-17, cumulative = 3.49257e-15
smoothSolver:  Solving for p, Initial residual = 2.26505e-05, Final residual = 1.93045e-16, No Iterations 5
diagonal:  Solving for rho, Initial residual = 0, Final residual = 0, No Iterations 0
time step continuity errors : sum local = 3.79284e-16, global = 4.64954e-17, cumulative = 3.53907e-15
ExecutionTime = 0.12 s  ClockTime = 0 s

Courant Number mean: 0.00683394 max: 0.294711
Time = 0.00034

PIMPLE: iteration 1
diagonal:  Solving for rho, Initial residual = 0, Final residual = 0, No Iterations 0
smoothSolver:  Solving for Ux, Initial residual = 0.00596363, Final residual = 1.40444e-17, No Iterations 1
smoothSolver:  Solving for e, Initial residual = 0.00106442, Final residual = 5.50483e-16, No Iterations 7
smoothSolver:  Solving for p, Initial residual = 0.000308176, Final residual = 6.17677e-17, No Iterations 6
diagonal:  Solving for rho, Initial residual = 0, Final residual = 0, No Iterations 0
time step continuity errors : sum local = 1.5576e-16, global = -4.85234e-17, cumulative = 3.49055e-15
smoothSolver:  Solving for p, Initial residual = 2.25988e-05, Final residual = 1.91819e-16, No Iterations 5
diagonal:  Solving for rho, Initial residual = 0, Final residual = 0, No Iterations 0
time step continuity errors : sum local = 3.66572e-16, global = 4.91665e-17, cumulative = 3.53971e-15
ExecutionTime = 0.12 s  ClockTime = 0 s

Courant Number mean: 0.00703793 max: 0.293702
Time = 0.00035

PIMPLE: iteration 1
diagonal:  Solving for rho, Initial residual = 0, Final residual = 0, No Iterations 0
smoothSolver:  Solving for Ux, Initial residual = 0.00579691, Final residual = 1.36039e-17, No Iterations 1
smoothSolver:  Solving for e, Initial residual = 0.00106341, Final residual = 5.13209e-16, No Iterations 7
smoothSolver:  Solving for p, Initial residual = 0.000307632, Final residual = 6.2822e-17, No Iterations 6
diagonal:  Solving for rho, Initial residual = 0, Final residual = 0, No Iterations 0
time step continuity errors : sum local = 1.45348e-16, global = -4.03373e-17, cumulative = 3.49938e-15
smoothSolver:  Solving for p, Initial residual = 2.24955e-05, Final residual = 1.94056e-16, No Iterations 5
diagonal:  Solving for rho, Initial residual = 0, Final residual = 0, No Iterations 0
time step continuity errors : sum local = 3.72384e-16, global = 4.6075e-17, cumulative = 3.54545e-15
ExecutionTime = 0.12 s  ClockTime = 0 s

Courant Number mean: 0.007242 max: 0.294459
Time = 0.00036

PIMPLE: iteration 1
diagonal:  Solving for rho, Initial residual = 0, Final residual = 0, No Iterations 0
smoothSolver:  Solving for Ux, Initial residual = 0.00562744, Final residual = 2.06053e-17, No Iterations 1
smoothSolver:  Solving for e, Initial residual = 0.0010642, Final residual = 5.47154e-16, No Iterations 7
smoothSolver:  Solving for p, Initial residual = 0.000308402, Final residual = 6.26012e-17, No Iterations 6
diagonal:  Solving for rho, Initial residual = 0, Final residual = 0, No Iterations 0
time step continuity errors : sum local = 1.5158e-16, global = -3.7963e-17, cumulative = 3.50749e-15
smoothSolver:  Solving for p, Initial residual = 2.23855e-05, Final residual = 1.89508e-16, No Iterations 5
diagonal:  Solving for rho, Initial residual = 0, Final residual = 0, No Iterations 0
time step continuity errors : sum local = 3.65632e-16, global = 4.73858e-17, cumulative = 3.55487e-15
ExecutionTime = 0.13 s  ClockTime = 0 s

Courant Number mean: 0.00744609 max: 0.293411
Time = 0.00037

PIMPLE: iteration 1
diagonal:  Solving for rho, Initial residual = 0, Final residual = 0, No Iterations 0
smoothSolver:  Solving for Ux, Initial residual = 0.00548496, Final residual = 1.9742e-17, No Iterations 1
smoothSolver:  Solving for e, Initial residual = 0.00106302, Final residual = 5.31958e-16, No Iterations 7
smoothSolver:  Solving for p, Initial residual = 0.000307136, Final residual = 6.30888e-17, No Iterations 6
diagonal:  Solving for rho, Initial residual = 0, Final residual = 0, No Iterations 0
time step continuity errors : sum local = 1.51061e-16, global = -4.31814e-17, cumulative = 3.51169e-15
smoothSolver:  Solving for p, Initial residual = 2.2187e-05, Final residual = 1.93331e-16, No Iterations 5
diagonal:  Solving for rho, Initial residual = 0, Final residual = 0, No Iterations 0
time step continuity errors : sum local = 3.70603e-16, global = 4.65202e-17, cumulative = 3.55821e-15
ExecutionTime = 0.13 s  ClockTime = 0 s

Courant Number mean: 0.00765026 max: 0.29425
Time = 0.00038

PIMPLE: iteration 1
diagonal:  Solving for rho, Initial residual = 0, Final residual = 0, No Iterations 0
smoothSolver:  Solving for Ux, Initial residual = 0.00533031, Final residual = 1.48498e-17, No Iterations 1
smoothSolver:  Solving for e, Initial residual = 0.00106363, Final residual = 5.72529e-16, No Iterations 7
smoothSolver:  Solving for p, Initial residual = 0.000307433, Final residual = 6.18299e-17, No Iterations 6
diagonal:  Solving for rho, Initial residual = 0, Final residual = 0, No Iterations 0
time step continuity errors : sum local = 1.50096e-16, global = -4.44922e-17, cumulative = 3.51372e-15
smoothSolver:  Solving for p, Initial residual = 2.18429e-05, Final residual = 1.88611e-16, No Iterations 5
diagonal:  Solving for rho, Initial residual = 0, Final residual = 0, No Iterations 0
time step continuity errors : sum local = 3.66077e-16, global = 3.13102e-17, cumulative = 3.54503e-15
ExecutionTime = 0.13 s  ClockTime = 0 s

Courant Number mean: 0.00785445 max: 0.29316
Time = 0.00039

PIMPLE: iteration 1
diagonal:  Solving for rho, Initial residual = 0, Final residual = 0, No Iterations 0
smoothSolver:  Solving for Ux, Initial residual = 0.00520683, Final residual = 1.40401e-17, No Iterations 1
smoothSolver:  Solving for e, Initial residual = 0.00106271, Final residual = 5.42315e-16, No Iterations 7
smoothSolver:  Solving for p, Initial residual = 0.000307262, Final residual = 6.23776e-17, No Iterations 6
diagonal:  Solving for rho, Initial residual = 0, Final residual = 0, No Iterations 0
time step continuity errors : sum local = 1.49107e-16, global = -4.74105e-17, cumulative = 3.49762e-15
smoothSolver:  Solving for p, Initial residual = 2.20493e-05, Final residual = 1.93324e-16, No Iterations 5
diagonal:  Solving for rho, Initial residual = 0, Final residual = 0, No Iterations 0
time step continuity errors : sum local = 3.68279e-16, global = 3.88039e-17, cumulative = 3.53642e-15
ExecutionTime = 0.13 s  ClockTime = 0 s

Courant Number mean: 0.0080587 max: 0.294073
Time = 0.0004

PIMPLE: iteration 1
diagonal:  Solving for rho, Initial residual = 0, Final residual = 0, No Iterations 0
smoothSolver:  Solving for Ux, Initial residual = 0.00506492, Final residual = 1.62711e-17, No Iterations 1
smoothSolver:  Solving for e, Initial residual = 0.0010635, Final residual = 5.62963e-16, No Iterations 7
smoothSolver:  Solving for p, Initial residual = 0.00030764, Final residual = 6.01542e-17, No Iterations 6
diagonal:  Solving for rho, Initial residual = 0, Final residual = 0, No Iterations 0
time step continuity errors : sum local = 1.51234e-16, global = -4.66191e-17, cumulative = 3.4898e-15
smoothSolver:  Solving for p, Initial residual = 2.1637e-05, Final residual = 1.87288e-16, No Iterations 5
diagonal:  Solving for rho, Initial residual = 0, Final residual = 0, No Iterations 0
time step continuity errors : sum local = 3.61923e-16, global = 2.9579e-17, cumulative = 3.51938e-15
ExecutionTime = 0.13 s  ClockTime = 0 s

Courant Number mean: 0.00826297 max: 0.29309
Time = 0.00041

PIMPLE: iteration 1
diagonal:  Solving for rho, Initial residual = 0, Final residual = 0, No Iterations 0
smoothSolver:  Solving for Ux, Initial residual = 0.00495867, Final residual = 1.57029e-17, No Iterations 1
smoothSolver:  Solving for e, Initial residual = 0.00106362, Final residual = 5.50051e-16, No Iterations 7
smoothSolver:  Solving for p, Initial residual = 0.000306943, Final residual = 6.37164e-17, No Iterations 6
diagonal:  Solving for rho, Initial residual = 0, Final residual = 0, No Iterations 0
time step continuity errors : sum local = 1.55389e-16, global = -3.82598e-17, cumulative = 3.48112e-15
smoothSolver:  Solving for p, Initial residual = 2.17703e-05, Final residual = 1.93776e-16, No Iterations 5
diagonal:  Solving for rho, Initial residual = 0, Final residual = 0, No Iterations 0
time step continuity errors : sum local = 3.66622e-16, global = 3.58608e-17, cumulative = 3.51698e-15
ExecutionTime = 0.14 s  ClockTime = 0 s

Courant Number mean: 0.0084673 max: 0.293917
Time = 0.00042

PIMPLE: iteration 1
diagonal:  Solving for rho, Initial residual = 0, Final residual = 0, No Iterations 0
smoothSolver:  Solving for Ux, Initial residual = 0.00482543, Final residual = 1.74699e-17, No Iterations 1
smoothSolver:  Solving for e, Initial residual = 0.00106437, Final residual = 5.84647e-16, No Iterations 7
smoothSolver:  Solving for p, Initial residual = 0.000306919, Final residual = 6.29505e-17, No Iterations 6
diagonal:  Solving for rho, Initial residual = 0, Final residual = 0, No Iterations 0
time step continuity errors : sum local = 1.52174e-16, global = -4.86471e-17, cumulative = 3.46834e-15
smoothSolver:  Solving for p, Initial residual = 2.12138e-05, Final residual = 1.86204e-16, No Iterations 5
diagonal:  Solving for rho, Initial residual = 0, Final residual = 0, No Iterations 0
time step continuity errors : sum local = 3.57693e-16, global = 2.97521e-17, cumulative = 3.49809e-15
ExecutionTime = 0.14 s  ClockTime = 0 s

Courant Number mean: 0.00867165 max: 0.293053
Time = 0.00043

PIMPLE: iteration 1
diagonal:  Solving for rho, Initial residual = 0, Final residual = 0, No Iterations 0
smoothSolver:  Solving for Ux, Initial residual = 0.00472964, Final residual = 1.28462e-17, No Iterations 1
smoothSolver:  Solving for e, Initial residual = 0.00106366, Final residual = 5.63256e-16, No Iterations 7
smoothSolver:  Solving for p, Initial residual = 0.000307003, Final residual = 6.62946e-17, No Iterations 6
diagonal:  Solving for rho, Initial residual = 0, Final residual = 0, No Iterations 0
time step continuity errors : sum local = 1.56106e-16, global = -4.61492e-17, cumulative = 3.45194e-15
smoothSolver:  Solving for p, Initial residual = 2.1575e-05, Final residual = 1.93799e-16, No Iterations 5
diagonal:  Solving for rho, Initial residual = 0, Final residual = 0, No Iterations 0
time step continuity errors : sum local = 3.72285e-16, global = 3.49952e-17, cumulative = 3.48694e-15
ExecutionTime = 0.14 s  ClockTime = 0 s

Courant Number mean: 0.00887604 max: 0.293779
Time = 0.00044

PIMPLE: iteration 1
diagonal:  Solving for rho, Initial residual = 0, Final residual = 0, No Iterations 0
smoothSolver:  Solving for Ux, Initial residual = 0.00460482, Final residual = 1.72007e-17, No Iterations 1
smoothSolver:  Solving for e, Initial residual = 0.00106342, Final residual = 5.80145e-16, No Iterations 7
smoothSolver:  Solving for p, Initial residual = 0.00030713, Final residual = 6.34166e-17, No Iterations 6
diagonal:  Solving for rho, Initial residual = 0, Final residual = 0, No Iterations 0
time step continuity errors : sum local = 1.4787e-16, global = -4.38492e-17, cumulative = 3.44309e-15
smoothSolver:  Solving for p, Initial residual = 2.09926e-05, Final residual = 1.84354e-16, No Iterations 5
diagonal:  Solving for rho, Initial residual = 0, Final residual = 0, No Iterations 0
time step continuity errors : sum local = 3.48839e-16, global = 3.65286e-17, cumulative = 3.47962e-15
ExecutionTime = 0.14 s  ClockTime = 0 s

Courant Number mean: 0.00908047 max: 0.293028
Time = 0.00045

PIMPLE: iteration 1
diagonal:  Solving for rho, Initial residual = 0, Final residual = 0, No Iterations 0
smoothSolver:  Solving for Ux, Initial residual = 0.0045231, Final residual = 1.32271e-17, No Iterations 1
smoothSolver:  Solving for e, Initial residual = 0.0010631, Final residual = 5.63728e-16, No Iterations 7
smoothSolver:  Solving for p, Initial residual = 0.000306952, Final residual = 6.4716e-17, No Iterations 6
diagonal:  Solving for rho, Initial residual = 0, Final residual = 0, No Iterations 0
time step continuity errors : sum local = 1.4839e-16, global = -4.35276e-17, cumulative = 3.43609e-15
smoothSolver:  Solving for p, Initial residual = 2.1428e-05, Final residual = 1.89976e-16, No Iterations 5
diagonal:  Solving for rho, Initial residual = 0, Final residual = 0, No Iterations 0
time step continuity errors : sum local = 3.63926e-16, global = 2.95048e-17, cumulative = 3.46559e-15
ExecutionTime = 0.15 s  ClockTime = 0 s

Courant Number mean: 0.00928493 max: 0.293658
Time = 0.00046

PIMPLE: iteration 1
diagonal:  Solving for rho, Initial residual = 0, Final residual = 0, No Iterations 0
smoothSolver:  Solving for Ux, Initial residual = 0.00440466, Final residual = 1.40122e-17, No Iterations 1
smoothSolver:  Solving for e, Initial residual = 0.00106288, Final residual = 5.90594e-16, No Iterations 7
smoothSolver:  Solving for p, Initial residual = 0.000306691, Final residual = 6.24403e-17, No Iterations 6
diagonal:  Solving for rho, Initial residual = 0, Final residual = 0, No Iterations 0
time step continuity errors : sum local = 1.44631e-16, global = -4.71385e-17, cumulative = 3.41845e-15
smoothSolver:  Solving for p, Initial residual = 2.06545e-05, Final residual = 1.81354e-16, No Iterations 5
diagonal:  Solving for rho, Initial residual = 0, Final residual = 0, No Iterations 0
time step continuity errors : sum local = 3.47603e-16, global = 2.75758e-17, cumulative = 3.44603e-15
ExecutionTime = 0.15 s  ClockTime = 0 s

Courant Number mean: 0.00948941 max: 0.293014
Time = 0.00047

PIMPLE: iteration 1
diagonal:  Solving for rho, Initial residual = 0, Final residual = 0, No Iterations 0
smoothSolver:  Solving for Ux, Initial residual = 0.00433173, Final residual = 1.54649e-17, No Iterations 1
smoothSolver:  Solving for e, Initial residual = 0.00106268, Final residual = 5.80347e-16, No Iterations 7
smoothSolver:  Solving for p, Initial residual = 0.000307083, Final residual = 6.21097e-17, No Iterations 6
diagonal:  Solving for rho, Initial residual = 0, Final residual = 0, No Iterations 0
time step continuity errors : sum local = 1.52569e-16, global = -5.14665e-17, cumulative = 3.39456e-15
smoothSolver:  Solving for p, Initial residual = 2.12881e-05, Final residual = 1.90602e-16, No Iterations 5
diagonal:  Solving for rho, Initial residual = 0, Final residual = 0, No Iterations 0
time step continuity errors : sum local = 3.63654e-16, global = 3.09145e-17, cumulative = 3.42548e-15
ExecutionTime = 0.15 s  ClockTime = 0 s

Courant Number mean: 0.00969393 max: 0.29355
Time = 0.00048

PIMPLE: iteration 1
diagonal:  Solving for rho, Initial residual = 0, Final residual = 0, No Iterations 0
smoothSolver:  Solving for Ux, Initial residual = 0.00422127, Final residual = 1.46722e-17, No Iterations 1
smoothSolver:  Solving for e, Initial residual = 0.00106187, Final residual = 5.9093e-16, No Iterations 7
smoothSolver:  Solving for p, Initial residual = 0.000307177, Final residual = 6.16848e-17, No Iterations 6
diagonal:  Solving for rho, Initial residual = 0, Final residual = 0, No Iterations 0
time step continuity errors : sum local = 1.45595e-16, global = -4.76578e-17, cumulative = 3.37782e-15
smoothSolver:  Solving for p, Initial residual = 2.04843e-05, Final residual = 1.80144e-16, No Iterations 5
diagonal:  Solving for rho, Initial residual = 0, Final residual = 0, No Iterations 0
time step continuity errors : sum local = 3.43992e-16, global = 2.15412e-17, cumulative = 3.39936e-15
ExecutionTime = 0.15 s  ClockTime = 0 s

Courant Number mean: 0.00989847 max: 0.293016
Time = 0.00049

PIMPLE: iteration 1
diagonal:  Solving for rho, Initial residual = 0, Final residual = 0, No Iterations 0
smoothSolver:  Solving for Ux, Initial residual = 0.00415832, Final residual = 1.64219e-17, No Iterations 1
smoothSolver:  Solving for e, Initial residual = 0.00106167, Final residual = 5.74321e-16, No Iterations 7
smoothSolver:  Solving for p, Initial residual = 0.000307354, Final residual = 6.47509e-17, No Iterations 6
diagonal:  Solving for rho, Initial residual = 0, Final residual = 0, No Iterations 0
time step continuity errors : sum local = 1.54474e-16, global = -4.71879e-17, cumulative = 3.35217e-15
smoothSolver:  Solving for p, Initial residual = 2.12324e-05, Final residual = 1.90713e-16, No Iterations 5
diagonal:  Solving for rho, Initial residual = 0, Final residual = 0, No Iterations 0
time step continuity errors : sum local = 3.64074e-16, global = 2.06014e-17, cumulative = 3.37277e-15
ExecutionTime = 0.15 s  ClockTime = 0 s

Courant Number mean: 0.010103 max: 0.29346
Time = 0.0005

PIMPLE: iteration 1
diagonal:  Solving for rho, Initial residual = 0, Final residual = 0, No Iterations 0
smoothSolver:  Solving for Ux, Initial residual = 0.00405369, Final residual = 1.52167e-17, No Iterations 1
smoothSolver:  Solving for e, Initial residual = 0.00106135, Final residual = 5.97394e-16, No Iterations 7
smoothSolver:  Solving for p, Initial residual = 0.000306725, Final residual = 6.30695e-17, No Iterations 6
diagonal:  Solving for rho, Initial residual = 0, Final residual = 0, No Iterations 0
time step continuity errors : sum local = 1.45546e-16, global = -4.64212e-17, cumulative = 3.32635e-15
smoothSolver:  Solving for p, Initial residual = 2.01385e-05, Final residual = 1.78657e-16, No Iterations 5
diagonal:  Solving for rho, Initial residual = 0, Final residual = 0, No Iterations 0
time step continuity errors : sum local = 3.38823e-16, global = 2.92822e-17, cumulative = 3.35564e-15
ExecutionTime = 0.16 s  ClockTime = 0 s

Courant Number mean: 0.0103076 max: 0.293023
Time = 0.00051

PIMPLE: iteration 1
diagonal:  Solving for rho, Initial residual = 0, Final residual = 0, No Iterations 0
smoothSolver:  Solving for Ux, Initial residual = 0.00399844, Final residual = 1.54074e-17, No Iterations 1
smoothSolver:  Solving for e, Initial residual = 0.0010614, Final residual = 5.85879e-16, No Iterations 7
smoothSolver:  Solving for p, Initial residual = 0.000307456, Final residual = 6.01946e-17, No Iterations 6
diagonal:  Solving for rho, Initial residual = 0, Final residual = 0, No Iterations 0
time step continuity errors : sum local = 1.47722e-16, global = -4.77073e-17, cumulative = 3.30793e-15
smoothSolver:  Solving for p, Initial residual = 2.11278e-05, Final residual = 1.87718e-16, No Iterations 5
diagonal:  Solving for rho, Initial residual = 0, Final residual = 0, No Iterations 0
time step continuity errors : sum local = 3.58732e-16, global = 2.87629e-17, cumulative = 3.33669e-15
ExecutionTime = 0.16 s  ClockTime = 0 s

Courant Number mean: 0.0105123 max: 0.293379
Time = 0.00052

PIMPLE: iteration 1
diagonal:  Solving for rho, Initial residual = 0, Final residual = 0, No Iterations 0
smoothSolver:  Solving for Ux, Initial residual = 0.00390058, Final residual = 1.43709e-17, No Iterations 1
smoothSolver:  Solving for e, Initial residual = 0.00106063, Final residual = 5.95806e-16, No Iterations 7
smoothSolver:  Solving for p, Initial residual = 0.000307284, Final residual = 6.29956e-17, No Iterations 6
diagonal:  Solving for rho, Initial residual = 0, Final residual = 0, No Iterations 0
time step continuity errors : sum local = 1.51333e-16, global = -4.86966e-17, cumulative = 3.28799e-15
smoothSolver:  Solving for p, Initial residual = 1.99797e-05, Final residual = 1.80299e-16, No Iterations 5
diagonal:  Solving for rho, Initial residual = 0, Final residual = 0, No Iterations 0
time step continuity errors : sum local = 3.50867e-16, global = 2.37176e-17, cumulative = 3.31171e-15
ExecutionTime = 0.16 s  ClockTime = 0 s

Courant Number mean: 0.0107169 max: 0.293023
Time = 0.00053

PIMPLE: iteration 1
diagonal:  Solving for rho, Initial residual = 0, Final residual = 0, No Iterations 0
smoothSolver:  Solving for Ux, Initial residual = 0.00385223, Final residual = 1.78619e-17, No Iterations 1
smoothSolver:  Solving for e, Initial residual = 0.00106061, Final residual = 5.81601e-16, No Iterations 7
smoothSolver:  Solving for p, Initial residual = 0.000307874, Final residual = 6.10839e-17, No Iterations 6
diagonal:  Solving for rho, Initial residual = 0, Final residual = 0, No Iterations 0
time step continuity errors : sum local = 1.39536e-16, global = -4.23405e-17, cumulative = 3.26937e-15
smoothSolver:  Solving for p, Initial residual = 2.11092e-05, Final residual = 1.87573e-16, No Iterations 5
diagonal:  Solving for rho, Initial residual = 0, Final residual = 0, No Iterations 0
time step continuity errors : sum local = 3.57941e-16, global = 3.08403e-17, cumulative = 3.30021e-15
ExecutionTime = 0.16 s  ClockTime = 0 s

Courant Number mean: 0.0109216 max: 0.293296
Time = 0.00054

PIMPLE: iteration 1
diagonal:  Solving for rho, Initial residual = 0, Final residual = 0, No Iterations 0
smoothSolver:  Solving for Ux, Initial residual = 0.00376018, Final residual = 1.57061e-17, No Iterations 1
smoothSolver:  Solving for e, Initial residual = 0.00105903, Final residual = 6.02025e-16, No Iterations 7
smoothSolver:  Solving for p, Initial residual = 0.000306781, Final residual = 6.12014e-17, No Iterations 6
diagonal:  Solving for rho, Initial residual = 0, Final residual = 0, No Iterations 0
time step continuity errors : sum local = 1.4604e-16, global = -4.009e-17, cumulative = 3.26012e-15
smoothSolver:  Solving for p, Initial residual = 1.96492e-05, Final residual = 1.79441e-16, No Iterations 5
diagonal:  Solving for rho, Initial residual = 0, Final residual = 0, No Iterations 0
time step continuity errors : sum local = 3.43374e-16, global = 2.5523e-17, cumulative = 3.28565e-15
ExecutionTime = 0.17 s  ClockTime = 0 s

Courant Number mean: 0.0111263 max: 0.293034
Time = 0.00055

PIMPLE: iteration 1
diagonal:  Solving for rho, Initial residual = 0, Final residual = 0, No Iterations 0
smoothSolver:  Solving for Ux, Initial residual = 0.00371742, Final residual = 1.3898e-17, No Iterations 1
smoothSolver:  Solving for e, Initial residual = 0.00105913, Final residual = 5.94435e-16, No Iterations 7
smoothSolver:  Solving for p, Initial residual = 0.000307727, Final residual = 6.12226e-17, No Iterations 6
diagonal:  Solving for rho, Initial residual = 0, Final residual = 0, No Iterations 0
time step continuity errors : sum local = 1.47969e-16, global = -4.83998e-17, cumulative = 3.23725e-15
smoothSolver:  Solving for p, Initial residual = 2.0981e-05, Final residual = 1.8648e-16, No Iterations 5
diagonal:  Solving for rho, Initial residual = 0, Final residual = 0, No Iterations 0
time step continuity errors : sum local = 3.5804e-16, global = 2.60919e-17, cumulative = 3.26334e-15
ExecutionTime = 0.17 s  ClockTime = 0 s

Courant Number mean: 0.011331 max: 0.293223
Time = 0.00056

PIMPLE: iteration 1
diagonal:  Solving for rho, Initial residual = 0, Final residual = 0, No Iterations 0
smoothSolver:  Solving for Ux, Initial residual = 0.00362985, Final residual = 1.63686e-17, No Iterations 1
smoothSolver:  Solving for e, Initial residual = 0.00105784, Final residual = 6.05929e-16, No Iterations 7
smoothSolver:  Solving for p, Initial residual = 0.000307353, Final residual = 6.01177e-17, No Iterations 6
diagonal:  Solving for rho, Initial residual = 0, Final residual = 0, No Iterations 0
time step continuity errors : sum local = 1.44655e-16, global = -4.59266e-17, cumulative = 3.21741e-15
smoothSolver:  Solving for p, Initial residual = 1.95755e-05, Final residual = 1.77584e-16, No Iterations 5
diagonal:  Solving for rho, Initial residual = 0, Final residual = 0, No Iterations 0
time step continuity errors : sum local = 3.35163e-16, global = 1.751e-17, cumulative = 3.23492e-15
ExecutionTime = 0.17 s  ClockTime = 0 s

Courant Number mean: 0.0115357 max: 0.293049
Time = 0.00057

PIMPLE: iteration 1
diagonal:  Solving for rho, Initial residual = 0, Final residual = 0, No Iterations 0
smoothSolver:  Solving for Ux, Initial residual = 0.00359203, Final residual = 1.50235e-17, No Iterations 1
smoothSolver:  Solving for e, Initial residual = 0.00105861, Final residual = 5.83034e-16, No Iterations 7
smoothSolver:  Solving for p, Initial residual = 0.000308247, Final residual = 5.87801e-17, No Iterations 6
diagonal:  Solving for rho, Initial residual = 0, Final residual = 0, No Iterations 0
time step continuity errors : sum local = 1.41984e-16, global = -5.2802e-17, cumulative = 3.18212e-15
smoothSolver:  Solving for p, Initial residual = 2.09873e-05, Final residual = 1.86119e-16, No Iterations 5
diagonal:  Solving for rho, Initial residual = 0, Final residual = 0, No Iterations 0
time step continuity errors : sum local = 3.51783e-16, global = 2.07251e-17, cumulative = 3.20284e-15
ExecutionTime = 0.17 s  ClockTime = 0 s

Courant Number mean: 0.0117405 max: 0.293157
Time = 0.00058

PIMPLE: iteration 1
diagonal:  Solving for rho, Initial residual = 0, Final residual = 0, No Iterations 0
smoothSolver:  Solving for Ux, Initial residual = 0.00350833, Final residual = 1.63557e-17, No Iterations 1
smoothSolver:  Solving for e, Initial residual = 0.00105705, Final residual = 6.146e-16, No Iterations 7
smoothSolver:  Solving for p, Initial residual = 0.000306942, Final residual = 5.98505e-17, No Iterations 6
diagonal:  Solving for rho, Initial residual = 0, Final residual = 0, No Iterations 0
time step continuity errors : sum local = 1.4327e-16, global = -4.13265e-17, cumulative = 3.16152e-15
smoothSolver:  Solving for p, Initial residual = 1.95594e-05, Final residual = 1.77696e-16, No Iterations 5
diagonal:  Solving for rho, Initial residual = 0, Final residual = 0, No Iterations 0
time step continuity errors : sum local = 3.36523e-16, global = 2.59929e-17, cumulative = 3.18751e-15
ExecutionTime = 0.18 s  ClockTime = 0 s

Courant Number mean: 0.0119452 max: 0.293068
Time = 0.00059

PIMPLE: iteration 1
diagonal:  Solving for rho, Initial residual = 0, Final residual = 0, No Iterations 0
smoothSolver:  Solving for Ux, Initial residual = 0.00347489, Final residual = 1.78207e-17, No Iterations 1
smoothSolver:  Solving for e, Initial residual = 0.00105765, Final residual = 5.89204e-16, No Iterations 7
smoothSolver:  Solving for p, Initial residual = 0.000308003, Final residual = 6.08982e-17, No Iterations 6
diagonal:  Solving for rho, Initial residual = 0, Final residual = 0, No Iterations 0
time step continuity errors : sum local = 1.48835e-16, global = -5.59924e-17, cumulative = 3.13152e-15
smoothSolver:  Solving for p, Initial residual = 2.08548e-05, Final residual = 1.8537e-16, No Iterations 5
diagonal:  Solving for rho, Initial residual = 0, Final residual = 0, No Iterations 0
time step continuity errors : sum local = 3.52994e-16, global = 1.58035e-17, cumulative = 3.14732e-15
ExecutionTime = 0.18 s  ClockTime = 0 s

Courant Number mean: 0.01215 max: 0.293096
Time = 0.0006

PIMPLE: iteration 1
diagonal:  Solving for rho, Initial residual = 0, Final residual = 0, No Iterations 0
smoothSolver:  Solving for Ux, Initial residual = 0.0033948, Final residual = 1.62466e-17, No Iterations 1
smoothSolver:  Solving for e, Initial residual = 0.00105564, Final residual = 6.10945e-16, No Iterations 7
smoothSolver:  Solving for p, Initial residual = 0.000307389, Final residual = 6.06727e-17, No Iterations 6
diagonal:  Solving for rho, Initial residual = 0, Final residual = 0, No Iterations 0
time step continuity errors : sum local = 1.46213e-16, global = -5.22826e-17, cumulative = 3.09504e-15
smoothSolver:  Solving for p, Initial residual = 1.96672e-05, Final residual = 1.79024e-16, No Iterations 5
diagonal:  Solving for rho, Initial residual = 0, Final residual = 0, No Iterations 0
time step continuity errors : sum local = 3.40752e-16, global = 9.69479e-18, cumulative = 3.10473e-15
ExecutionTime = 0.18 s  ClockTime = 0 s

Courant Number mean: 0.0123548 max: 0.293087
Time = 0.00061

PIMPLE: iteration 1
diagonal:  Solving for rho, Initial residual = 0, Final residual = 0, No Iterations 0
smoothSolver:  Solving for Ux, Initial residual = 0.00336506, Final residual = 1.55713e-17, No Iterations 1
smoothSolver:  Solving for e, Initial residual = 0.0010561, Final residual = 5.7963e-16, No Iterations 7
smoothSolver:  Solving for p, Initial residual = 0.000308552, Final residual = 6.25002e-17, No Iterations 6
diagonal:  Solving for rho, Initial residual = 0, Final residual = 0, No Iterations 0
time step continuity errors : sum local = 1.40723e-16, global = -4.94632e-17, cumulative = 3.05527e-15
smoothSolver:  Solving for p, Initial residual = 2.08529e-05, Final residual = 1.86074e-16, No Iterations 5
diagonal:  Solving for rho, Initial residual = 0, Final residual = 0, No Iterations 0
time step continuity errors : sum local = 3.51535e-16, global = 1.29594e-17, cumulative = 3.06823e-15
ExecutionTime = 0.18 s  ClockTime = 0 s

Courant Number mean: 0.0125597 max: 0.293039
Time = 0.00062

PIMPLE: iteration 1
diagonal:  Solving for rho, Initial residual = 0, Final residual = 0, No Iterations 0
smoothSolver:  Solving for Ux, Initial residual = 0.00328849, Final residual = 1.99245e-17, No Iterations 1
smoothSolver:  Solving for e, Initial residual = 0.0010543, Final residual = 6.00768e-16, No Iterations 7
smoothSolver:  Solving for p, Initial residual = 0.000307125, Final residual = 6.01831e-17, No Iterations 6
diagonal:  Solving for rho, Initial residual = 0, Final residual = 0, No Iterations 0
time step continuity errors : sum local = 1.45175e-16, global = -5.00568e-17, cumulative = 3.01817e-15
smoothSolver:  Solving for p, Initial residual = 1.96608e-05, Final residual = 1.79131e-16, No Iterations 5
diagonal:  Solving for rho, Initial residual = 0, Final residual = 0, No Iterations 0
time step continuity errors : sum local = 3.39244e-16, global = 9.37328e-18, cumulative = 3.02755e-15
ExecutionTime = 0.18 s  ClockTime = 0 s

Courant Number mean: 0.0127645 max: 0.293106
Time = 0.00063

PIMPLE: iteration 1
diagonal:  Solving for rho, Initial residual = 0, Final residual = 0, No Iterations 0
smoothSolver:  Solving for Ux, Initial residual = 0.00326224, Final residual = 1.89432e-17, No Iterations 1
smoothSolver:  Solving for e, Initial residual = 0.00105554, Final residual = 5.90916e-16, No Iterations 7
smoothSolver:  Solving for p, Initial residual = 0.000308333, Final residual = 6.24743e-17, No Iterations 6
diagonal:  Solving for rho, Initial residual = 0, Final residual = 0, No Iterations 0
time step continuity errors : sum local = 1.47326e-16, global = -6.35355e-17, cumulative = 2.96401e-15
smoothSolver:  Solving for p, Initial residual = 2.07083e-05, Final residual = 1.84448e-16, No Iterations 5
diagonal:  Solving for rho, Initial residual = 0, Final residual = 0, No Iterations 0
time step continuity errors : sum local = 3.49532e-16, global = 6.99905e-18, cumulative = 2.97101e-15
ExecutionTime = 0.19 s  ClockTime = 0 s

Courant Number mean: 0.0129694 max: 0.292985
Time = 0.00064

PIMPLE: iteration 1
diagonal:  Solving for rho, Initial residual = 0, Final residual = 0, No Iterations 0
smoothSolver:  Solving for Ux, Initial residual = 0.00318893, Final residual = 1.26524e-17, No Iterations 1
smoothSolver:  Solving for e, Initial residual = 0.00105364, Final residual = 5.94936e-16, No Iterations 7
smoothSolver:  Solving for p, Initial residual = 0.000307512, Final residual = 6.05842e-17, No Iterations 6
diagonal:  Solving for rho, Initial residual = 0, Final residual = 0, No Iterations 0
time step continuity errors : sum local = 1.44655e-16, global = -5.4187e-17, cumulative = 2.91682e-15
smoothSolver:  Solving for p, Initial residual = 1.97535e-05, Final residual = 1.77697e-16, No Iterations 5
diagonal:  Solving for rho, Initial residual = 0, Final residual = 0, No Iterations 0
time step continuity errors : sum local = 3.38774e-16, global = 1.68175e-17, cumulative = 2.93364e-15
ExecutionTime = 0.19 s  ClockTime = 0 s

Courant Number mean: 0.0131742 max: 0.293125
Time = 0.00065

PIMPLE: iteration 1
diagonal:  Solving for rho, Initial residual = 0, Final residual = 0, No Iterations 0
smoothSolver:  Solving for Ux, Initial residual = 0.00316577, Final residual = 1.46371e-17, No Iterations 1
smoothSolver:  Solving for e, Initial residual = 0.00105438, Final residual = 5.82898e-16, No Iterations 7
smoothSolver:  Solving for p, Initial residual = 0.000308856, Final residual = 6.00525e-17, No Iterations 6
diagonal:  Solving for rho, Initial residual = 0, Final residual = 0, No Iterations 0
time step continuity errors : sum local = 1.46782e-16, global = -5.78473e-17, cumulative = 2.87579e-15
smoothSolver:  Solving for p, Initial residual = 2.06907e-05, Final residual = 1.80894e-16, No Iterations 5
diagonal:  Solving for rho, Initial residual = 0, Final residual = 0, No Iterations 0
time step continuity errors : sum local = 3.47776e-16, global = 8.26036e-18, cumulative = 2.88405e-15
ExecutionTime = 0.19 s  ClockTime = 0 s

Courant Number mean: 0.0133791 max: 0.292934
Time = 0.00066

PIMPLE: iteration 1
diagonal:  Solving for rho, Initial residual = 0, Final residual = 0, No Iterations 0
smoothSolver:  Solving for Ux, Initial residual = 0.00309546, Final residual = 1.63627e-17, No Iterations 1
smoothSolver:  Solving for e, Initial residual = 0.00105272, Final residual = 5.85051e-16, No Iterations 7
smoothSolver:  Solving for p, Initial residual = 0.000307333, Final residual = 6.13729e-17, No Iterations 6
diagonal:  Solving for rho, Initial residual = 0, Final residual = 0, No Iterations 0
time step continuity errors : sum local = 1.4656e-16, global = -5.28762e-17, cumulative = 2.83118e-15
smoothSolver:  Solving for p, Initial residual = 1.97605e-05, Final residual = 1.78909e-16, No Iterations 5
diagonal:  Solving for rho, Initial residual = 0, Final residual = 0, No Iterations 0
time step continuity errors : sum local = 3.47356e-16, global = 9.47221e-18, cumulative = 2.84065e-15
ExecutionTime = 0.19 s  ClockTime = 0 s

Courant Number mean: 0.013584 max: 0.293143
Time = 0.00067

PIMPLE: iteration 1
diagonal:  Solving for rho, Initial residual = 0, Final residual = 0, No Iterations 0
smoothSolver:  Solving for Ux, Initial residual = 0.00307504, Final residual = 1.54415e-17, No Iterations 1
smoothSolver:  Solving for e, Initial residual = 0.00105355, Final residual = 5.89146e-16, No Iterations 7
smoothSolver:  Solving for p, Initial residual = 0.000308691, Final residual = 6.0331e-17, No Iterations 6
diagonal:  Solving for rho, Initial residual = 0, Final residual = 0, No Iterations 0
time step continuity errors : sum local = 1.474e-16, global = -6.77152e-17, cumulative = 2.77293e-15
smoothSolver:  Solving for p, Initial residual = 2.05537e-05, Final residual = 1.80588e-16, No Iterations 5
diagonal:  Solving for rho, Initial residual = 0, Final residual = 0, No Iterations 0
time step continuity errors : sum local = 3.49087e-16, global = -7.54314e-18, cumulative = 2.76539e-15
ExecutionTime = 0.2 s  ClockTime = 0 s

Courant Number mean: 0.0137889 max: 0.292883
Time = 0.00068

PIMPLE: iteration 1
diagonal:  Solving for rho, Initial residual = 0, Final residual = 0, No Iterations 0
smoothSolver:  Solving for Ux, Initial residual = 0.00301166, Final residual = 1.21533e-17, No Iterations 1
smoothSolver:  Solving for e, Initial residual = 0.00105255, Final residual = 5.84558e-16, No Iterations 7
smoothSolver:  Solving for p, Initial residual = 0.00030768, Final residual = 6.02814e-17, No Iterations 6
diagonal:  Solving for rho, Initial residual = 0, Final residual = 0, No Iterations 0
time step continuity errors : sum local = 1.39734e-16, global = -5.49537e-17, cumulative = 2.71044e-15
smoothSolver:  Solving for p, Initial residual = 1.98396e-05, Final residual = 1.81039e-16, No Iterations 5
diagonal:  Solving for rho, Initial residual = 0, Final residual = 0, No Iterations 0
time step continuity errors : sum local = 3.37587e-16, global = 6.13344e-18, cumulative = 2.71657e-15
ExecutionTime = 0.2 s  ClockTime = 0 s

Courant Number mean: 0.0139939 max: 0.293162
Time = 0.00069

PIMPLE: iteration 1
diagonal:  Solving for rho, Initial residual = 0, Final residual = 0, No Iterations 0
smoothSolver:  Solving for Ux, Initial residual = 0.00298963, Final residual = 1.75595e-17, No Iterations 1
smoothSolver:  Solving for e, Initial residual = 0.00105375, Final residual = 5.8273e-16, No Iterations 7
smoothSolver:  Solving for p, Initial residual = 0.000309227, Final residual = 6.38667e-17, No Iterations 6
diagonal:  Solving for rho, Initial residual = 0, Final residual = 0, No Iterations 0
time step continuity errors : sum local = 1.49156e-16, global = -6.2843e-17, cumulative = 2.65373e-15
smoothSolver:  Solving for p, Initial residual = 2.05287e-05, Final residual = 1.81733e-16, No Iterations 5
diagonal:  Solving for rho, Initial residual = 0, Final residual = 0, No Iterations 0
time step continuity errors : sum local = 3.45451e-16, global = 9.39802e-18, cumulative = 2.66313e-15
ExecutionTime = 0.2 s  ClockTime = 0 s

Courant Number mean: 0.0141988 max: 0.292834
Time = 0.0007

PIMPLE: iteration 1
diagonal:  Solving for rho, Initial residual = 0, Final residual = 0, No Iterations 0
smoothSolver:  Solving for Ux, Initial residual = 0.00293265, Final residual = 1.63252e-17, No Iterations 1
smoothSolver:  Solving for e, Initial residual = 0.0010518, Final residual = 5.82522e-16, No Iterations 7
smoothSolver:  Solving for p, Initial residual = 0.000307587, Final residual = 6.1353e-17, No Iterations 6
diagonal:  Solving for rho, Initial residual = 0, Final residual = 0, No Iterations 0
time step continuity errors : sum local = 1.49404e-16, global = -5.31977e-17, cumulative = 2.60993e-15
smoothSolver:  Solving for p, Initial residual = 1.98537e-05, Final residual = 1.80321e-16, No Iterations 5
diagonal:  Solving for rho, Initial residual = 0, Final residual = 0, No Iterations 0
time step continuity errors : sum local = 3.42162e-16, global = 9.27436e-18, cumulative = 2.6192e-15
ExecutionTime = 0.2 s  ClockTime = 0 s

Courant Number mean: 0.0144037 max: 0.29318
Time = 0.00071

PIMPLE: iteration 1
diagonal:  Solving for rho, Initial residual = 0, Final residual = 0, No Iterations 0
smoothSolver:  Solving for Ux, Initial residual = 0.00290913, Final residual = 1.77048e-17, No Iterations 1
smoothSolver:  Solving for e, Initial residual = 0.00105409, Final residual = 5.8729e-16, No Iterations 7
smoothSolver:  Solving for p, Initial residual = 0.00030909, Final residual = 5.84551e-17, No Iterations 6
diagonal:  Solving for rho, Initial residual = 0, Final residual = 0, No Iterations 0
time step continuity errors : sum local = 1.45669e-16, global = -5.83172e-17, cumulative = 2.56088e-15
smoothSolver:  Solving for p, Initial residual = 2.03907e-05, Final residual = 1.81429e-16, No Iterations 5
diagonal:  Solving for rho, Initial residual = 0, Final residual = 0, No Iterations 0
time step continuity errors : sum local = 3.4325e-16, global = 2.07498e-17, cumulative = 2.58163e-15
ExecutionTime = 0.21 s  ClockTime = 0 s

Courant Number mean: 0.0146087 max: 0.292786
Time = 0.00072

PIMPLE: iteration 1
diagonal:  Solving for rho, Initial residual = 0, Final residual = 0, No Iterations 0
smoothSolver:  Solving for Ux, Initial residual = 0.00285805, Final residual = 2.1063e-17, No Iterations 1
smoothSolver:  Solving for e, Initial residual = 0.0010511, Final residual = 5.87672e-16, No Iterations 7
smoothSolver:  Solving for p, Initial residual = 0.000307989, Final residual = 5.99449e-17, No Iterations 6
diagonal:  Solving for rho, Initial residual = 0, Final residual = 0, No Iterations 0
time step continuity errors : sum local = 1.44581e-16, global = -5.82677e-17, cumulative = 2.52337e-15
smoothSolver:  Solving for p, Initial residual = 1.99226e-05, Final residual = 1.78792e-16, No Iterations 5
diagonal:  Solving for rho, Initial residual = 0, Final residual = 0, No Iterations 0
time step continuity errors : sum local = 3.41272e-16, global = 1.37755e-17, cumulative = 2.53714e-15
ExecutionTime = 0.21 s  ClockTime = 0 s

Courant Number mean: 0.0148137 max: 0.293197
Time = 0.00073

PIMPLE: iteration 1
diagonal:  Solving for rho, Initial residual = 0, Final residual = 0, No Iterations 0
smoothSolver:  Solving for Ux, Initial residual = 0.00283325, Final residual = 1.61711e-17, No Iterations 1
smoothSolver:  Solving for e, Initial residual = 0.00105355, Final residual = 5.85691e-16, No Iterations 7
smoothSolver:  Solving for p, Initial residual = 0.000309556, Final residual = 6.2861e-17, No Iterations 6
diagonal:  Solving for rho, Initial residual = 0, Final residual = 0, No Iterations 0
time step continuity errors : sum local = 1.52198e-16, global = -5.46074e-17, cumulative = 2.48254e-15
smoothSolver:  Solving for p, Initial residual = 2.03562e-05, Final residual = 1.7938e-16, No Iterations 5
diagonal:  Solving for rho, Initial residual = 0, Final residual = 0, No Iterations 0
time step continuity errors : sum local = 3.54874e-16, global = 6.1829e-19, cumulative = 2.48315e-15
ExecutionTime = 0.21 s  ClockTime = 0 s

Courant Number mean: 0.0150186 max: 0.292739
Time = 0.00074

PIMPLE: iteration 1
diagonal:  Solving for rho, Initial residual = 0, Final residual = 0, No Iterations 0
smoothSolver:  Solving for Ux, Initial residual = 0.00278733, Final residual = 1.61345e-17, No Iterations 1
smoothSolver:  Solving for e, Initial residual = 0.00105061, Final residual = 5.80913e-16, No Iterations 7
smoothSolver:  Solving for p, Initial residual = 0.000308216, Final residual = 6.17746e-17, No Iterations 6
diagonal:  Solving for rho, Initial residual = 0, Final residual = 0, No Iterations 0
time step continuity errors : sum local = 1.43196e-16, global = -4.976e-17, cumulative = 2.43339e-15
smoothSolver:  Solving for p, Initial residual = 1.99461e-05, Final residual = 1.79736e-16, No Iterations 5
diagonal:  Solving for rho, Initial residual = 0, Final residual = 0, No Iterations 0
time step continuity errors : sum local = 3.40876e-16, global = 1.18464e-17, cumulative = 2.44524e-15
ExecutionTime = 0.21 s  ClockTime = 0 s

Courant Number mean: 0.0152236 max: 0.293219
Time = 0.00075

PIMPLE: iteration 1
diagonal:  Solving for rho, Initial residual = 0, Final residual = 0, No Iterations 0
smoothSolver:  Solving for Ux, Initial residual = 0.00276137, Final residual = 1.52395e-17, No Iterations 1
smoothSolver:  Solving for e, Initial residual = 0.00105344, Final residual = 5.94739e-16, No Iterations 7
smoothSolver:  Solving for p, Initial residual = 0.000309446, Final residual = 5.96285e-17, No Iterations 6
diagonal:  Solving for rho, Initial residual = 0, Final residual = 0, No Iterations 0
time step continuity errors : sum local = 1.45348e-16, global = -5.50279e-17, cumulative = 2.39021e-15
smoothSolver:  Solving for p, Initial residual = 2.02167e-05, Final residual = 1.78681e-16, No Iterations 5
diagonal:  Solving for rho, Initial residual = 0, Final residual = 0, No Iterations 0
time step continuity errors : sum local = 3.40109e-16, global = 1.24647e-17, cumulative = 2.40268e-15
ExecutionTime = 0.22 s  ClockTime = 0 s

Courant Number mean: 0.0154286 max: 0.29269
Time = 0.00076

PIMPLE: iteration 1
diagonal:  Solving for rho, Initial residual = 0, Final residual = 0, No Iterations 0
smoothSolver:  Solving for Ux, Initial residual = 0.00272012, Final residual = 1.53612e-17, No Iterations 1
smoothSolver:  Solving for e, Initial residual = 0.00104971, Final residual = 5.8888e-16, No Iterations 7
smoothSolver:  Solving for p, Initial residual = 0.000308822, Final residual = 6.06884e-17, No Iterations 6
diagonal:  Solving for rho, Initial residual = 0, Final residual = 0, No Iterations 0
time step continuity errors : sum local = 1.39115e-16, global = -5.57203e-17, cumulative = 2.34696e-15
smoothSolver:  Solving for p, Initial residual = 1.99933e-05, Final residual = 1.81151e-16, No Iterations 5
diagonal:  Solving for rho, Initial residual = 0, Final residual = 0, No Iterations 0
time step continuity errors : sum local = 3.4189e-16, global = 1.83014e-18, cumulative = 2.34879e-15
ExecutionTime = 0.22 s  ClockTime = 0 s

Courant Number mean: 0.0156336 max: 0.293259
Time = 0.00077

PIMPLE: iteration 1
diagonal:  Solving for rho, Initial residual = 0, Final residual = 0, No Iterations 0
smoothSolver:  Solving for Ux, Initial residual = 0.00269325, Final residual = 1.57625e-17, No Iterations 1
smoothSolver:  Solving for e, Initial residual = 0.00105301, Final residual = 5.944e-16, No Iterations 7
smoothSolver:  Solving for p, Initial residual = 0.00030996, Final residual = 6.13996e-17, No Iterations 6
diagonal:  Solving for rho, Initial residual = 0, Final residual = 0, No Iterations 0
time step continuity errors : sum local = 1.46411e-16, global = -5.99989e-17, cumulative = 2.28879e-15
smoothSolver:  Solving for p, Initial residual = 2.0168e-05, Final residual = 1.78792e-16, No Iterations 5
diagonal:  Solving for rho, Initial residual = 0, Final residual = 0, No Iterations 0
time step continuity errors : sum local = 3.36573e-16, global = 1.70648e-18, cumulative = 2.29049e-15
[...]
diagonal:  Solving for rho, Initial residual = 0, Final residual = 0, No Iterations 0
time step continuity errors : sum local = 1.50636e-16, global = -5.14658e-17, cumulative = -4.79157e-14
smoothSolver:  Solving for p, Initial residual = 1.64766e-05, Final residual = 1.90733e-16, No Iterations 5
diagonal:  Solving for rho, Initial residual = 0, Final residual = 0, No Iterations 0
time step continuity errors : sum local = 2.38824e-16, global = -1.04417e-16, cumulative = -4.80201e-14
ExecutionTime = 2.34 s  ClockTime = 2 s

Courant Number mean: 0.201186 max: 0.292503
Time = 0.00982

PIMPLE: iteration 1
diagonal:  Solving for rho, Initial residual = 0, Final residual = 0, No Iterations 0
smoothSolver:  Solving for Ux, Initial residual = 0.000390536, Final residual = 4.55039e-17, No Iterations 1
smoothSolver:  Solving for e, Initial residual = 0.000708255, Final residual = 6.07589e-16, No Iterations 7
smoothSolver:  Solving for p, Initial residual = 0.000402331, Final residual = 8.72843e-17, No Iterations 6
diagonal:  Solving for rho, Initial residual = 0, Final residual = 0, No Iterations 0
time step continuity errors : sum local = 1.4462e-16, global = -4.00896e-17, cumulative = -4.80602e-14
smoothSolver:  Solving for p, Initial residual = 1.2747e-05, Final residual = 1.56432e-16, No Iterations 5
diagonal:  Solving for rho, Initial residual = 0, Final residual = 0, No Iterations 0
time step continuity errors : sum local = 2.05894e-16, global = -6.49359e-17, cumulative = -4.81251e-14
ExecutionTime = 2.34 s  ClockTime = 2 s

Courant Number mean: 0.20125 max: 0.296034
Time = 0.00983

PIMPLE: iteration 1
diagonal:  Solving for rho, Initial residual = 0, Final residual = 0, No Iterations 0
smoothSolver:  Solving for Ux, Initial residual = 0.000373672, Final residual = 4.65092e-17, No Iterations 1
smoothSolver:  Solving for e, Initial residual = 0.000683401, Final residual = 5.86004e-16, No Iterations 7
smoothSolver:  Solving for p, Initial residual = 0.000385739, Final residual = 9.09223e-17, No Iterations 6
diagonal:  Solving for rho, Initial residual = 0, Final residual = 0, No Iterations 0
time step continuity errors : sum local = 1.48106e-16, global = -4.05906e-17, cumulative = -4.81657e-14
smoothSolver:  Solving for p, Initial residual = 9.39497e-06, Final residual = 1.27131e-16, No Iterations 5
diagonal:  Solving for rho, Initial residual = 0, Final residual = 0, No Iterations 0
time step continuity errors : sum local = 1.82263e-16, global = -3.69277e-17, cumulative = -4.82026e-14
ExecutionTime = 2.35 s  ClockTime = 2 s

Courant Number mean: 0.201306 max: 0.296862
Time = 0.00984

PIMPLE: iteration 1
diagonal:  Solving for rho, Initial residual = 0, Final residual = 0, No Iterations 0
smoothSolver:  Solving for Ux, Initial residual = 0.000362916, Final residual = 4.57141e-17, No Iterations 1
smoothSolver:  Solving for e, Initial residual = 0.000656044, Final residual = 5.86181e-16, No Iterations 7
smoothSolver:  Solving for p, Initial residual = 0.000370047, Final residual = 8.7851e-17, No Iterations 6
diagonal:  Solving for rho, Initial residual = 0, Final residual = 0, No Iterations 0
time step continuity errors : sum local = 1.44168e-16, global = -2.85167e-17, cumulative = -4.82311e-14
smoothSolver:  Solving for p, Initial residual = 5.75807e-06, Final residual = 9.82585e-17, No Iterations 5
diagonal:  Solving for rho, Initial residual = 0, Final residual = 0, No Iterations 0
time step continuity errors : sum local = 1.58823e-16, global = -1.64368e-17, cumulative = -4.82476e-14
ExecutionTime = 2.35 s  ClockTime = 2 s

Courant Number mean: 0.20136 max: 0.295885
Time = 0.00985

PIMPLE: iteration 1
diagonal:  Solving for rho, Initial residual = 0, Final residual = 0, No Iterations 0
smoothSolver:  Solving for Ux, Initial residual = 0.000355897, Final residual = 4.99406e-17, No Iterations 1
smoothSolver:  Solving for e, Initial residual = 0.000647946, Final residual = 5.87441e-16, No Iterations 7
smoothSolver:  Solving for p, Initial residual = 0.000356297, Final residual = 8.81734e-17, No Iterations 6
diagonal:  Solving for rho, Initial residual = 0, Final residual = 0, No Iterations 0
time step continuity errors : sum local = 1.51023e-16, global = -3.11948e-17, cumulative = -4.82788e-14
smoothSolver:  Solving for p, Initial residual = 2.32685e-06, Final residual = 8.13367e-17, No Iterations 5
diagonal:  Solving for rho, Initial residual = 0, Final residual = 0, No Iterations 0
time step continuity errors : sum local = 1.52904e-16, global = -1.72314e-17, cumulative = -4.8296e-14
ExecutionTime = 2.35 s  ClockTime = 2 s

Courant Number mean: 0.201414 max: 0.29407
Time = 0.00986

PIMPLE: iteration 1
diagonal:  Solving for rho, Initial residual = 0, Final residual = 0, No Iterations 0
smoothSolver:  Solving for Ux, Initial residual = 0.000352151, Final residual = 4.67417e-17, No Iterations 1
smoothSolver:  Solving for e, Initial residual = 0.00064859, Final residual = 5.91902e-16, No Iterations 7
smoothSolver:  Solving for p, Initial residual = 0.000350274, Final residual = 8.96839e-17, No Iterations 6
diagonal:  Solving for rho, Initial residual = 0, Final residual = 0, No Iterations 0
time step continuity errors : sum local = 1.48074e-16, global = -4.80373e-17, cumulative = -4.8344e-14
smoothSolver:  Solving for p, Initial residual = 8.22302e-07, Final residual = 7.4365e-17, No Iterations 5
diagonal:  Solving for rho, Initial residual = 0, Final residual = 0, No Iterations 0
time step continuity errors : sum local = 1.33811e-16, global = -9.01318e-18, cumulative = -4.8353e-14
ExecutionTime = 2.35 s  ClockTime = 2 s

Courant Number mean: 0.201468 max: 0.292073
Time = 0.00987

PIMPLE: iteration 1
diagonal:  Solving for rho, Initial residual = 0, Final residual = 0, No Iterations 0
smoothSolver:  Solving for Ux, Initial residual = 0.000350498, Final residual = 4.8982e-17, No Iterations 1
smoothSolver:  Solving for e, Initial residual = 0.000651001, Final residual = 5.85873e-16, No Iterations 7
smoothSolver:  Solving for p, Initial residual = 0.000354726, Final residual = 8.74907e-17, No Iterations 6
diagonal:  Solving for rho, Initial residual = 0, Final residual = 0, No Iterations 0
time step continuity errors : sum local = 1.49086e-16, global = -4.78463e-17, cumulative = -4.84009e-14
smoothSolver:  Solving for p, Initial residual = 1.8854e-06, Final residual = 8.24072e-17, No Iterations 5
diagonal:  Solving for rho, Initial residual = 0, Final residual = 0, No Iterations 0
time step continuity errors : sum local = 1.42944e-16, global = -1.28779e-18, cumulative = -4.84022e-14
ExecutionTime = 2.36 s  ClockTime = 2 s

Courant Number mean: 0.201524 max: 0.290783
Time = 0.00988

PIMPLE: iteration 1
diagonal:  Solving for rho, Initial residual = 0, Final residual = 0, No Iterations 0
smoothSolver:  Solving for Ux, Initial residual = 0.000347787, Final residual = 4.90921e-17, No Iterations 1
smoothSolver:  Solving for e, Initial residual = 0.000646545, Final residual = 5.88386e-16, No Iterations 7
smoothSolver:  Solving for p, Initial residual = 0.00035686, Final residual = 8.78708e-17, No Iterations 6
diagonal:  Solving for rho, Initial residual = 0, Final residual = 0, No Iterations 0
time step continuity errors : sum local = 1.47622e-16, global = -4.55746e-17, cumulative = -4.84478e-14
smoothSolver:  Solving for p, Initial residual = 2.33427e-06, Final residual = 8.32092e-17, No Iterations 5
diagonal:  Solving for rho, Initial residual = 0, Final residual = 0, No Iterations 0
time step continuity errors : sum local = 1.40092e-16, global = -5.54821e-18, cumulative = -4.84533e-14
ExecutionTime = 2.36 s  ClockTime = 2 s

Courant Number mean: 0.201581 max: 0.290649
Time = 0.00989

PIMPLE: iteration 1
diagonal:  Solving for rho, Initial residual = 0, Final residual = 0, No Iterations 0
smoothSolver:  Solving for Ux, Initial residual = 0.000345491, Final residual = 4.91798e-17, No Iterations 1
smoothSolver:  Solving for e, Initial residual = 0.000643668, Final residual = 5.8624e-16, No Iterations 7
smoothSolver:  Solving for p, Initial residual = 0.00035676, Final residual = 8.86551e-17, No Iterations 6
diagonal:  Solving for rho, Initial residual = 0, Final residual = 0, No Iterations 0
time step continuity errors : sum local = 1.41302e-16, global = -3.56723e-17, cumulative = -4.8489e-14
smoothSolver:  Solving for p, Initial residual = 2.25266e-06, Final residual = 7.94638e-17, No Iterations 5
diagonal:  Solving for rho, Initial residual = 0, Final residual = 0, No Iterations 0
time step continuity errors : sum local = 1.40311e-16, global = 5.54902e-18, cumulative = -4.84834e-14
ExecutionTime = 2.37 s  ClockTime = 2 s

Courant Number mean: 0.201638 max: 0.290325
Time = 0.0099

PIMPLE: iteration 1
diagonal:  Solving for rho, Initial residual = 0, Final residual = 0, No Iterations 0
smoothSolver:  Solving for Ux, Initial residual = 0.000345084, Final residual = 4.75611e-17, No Iterations 1
smoothSolver:  Solving for e, Initial residual = 0.000638368, Final residual = 5.92033e-16, No Iterations 7
smoothSolver:  Solving for p, Initial residual = 0.000355067, Final residual = 8.91925e-17, No Iterations 6
diagonal:  Solving for rho, Initial residual = 0, Final residual = 0, No Iterations 0
time step continuity errors : sum local = 1.47368e-16, global = -3.28035e-17, cumulative = -4.85162e-14
smoothSolver:  Solving for p, Initial residual = 1.79196e-06, Final residual = 7.79327e-17, No Iterations 5
diagonal:  Solving for rho, Initial residual = 0, Final residual = 0, No Iterations 0
time step continuity errors : sum local = 1.43998e-16, global = -9.01848e-18, cumulative = -4.85252e-14
ExecutionTime = 2.37 s  ClockTime = 2 s

Courant Number mean: 0.201696 max: 0.290479
Time = 0.00991

PIMPLE: iteration 1
diagonal:  Solving for rho, Initial residual = 0, Final residual = 0, No Iterations 0
smoothSolver:  Solving for Ux, Initial residual = 0.000345428, Final residual = 4.53817e-17, No Iterations 1
smoothSolver:  Solving for e, Initial residual = 0.000637272, Final residual = 5.87987e-16, No Iterations 7
smoothSolver:  Solving for p, Initial residual = 0.000353536, Final residual = 8.45478e-17, No Iterations 6
diagonal:  Solving for rho, Initial residual = 0, Final residual = 0, No Iterations 0
time step continuity errors : sum local = 1.44813e-16, global = -4.15308e-17, cumulative = -4.85668e-14
smoothSolver:  Solving for p, Initial residual = 1.43163e-06, Final residual = 7.68963e-17, No Iterations 5
diagonal:  Solving for rho, Initial residual = 0, Final residual = 0, No Iterations 0
time step continuity errors : sum local = 1.31729e-16, global = -2.47797e-18, cumulative = -4.85693e-14
ExecutionTime = 2.37 s  ClockTime = 2 s

Courant Number mean: 0.201754 max: 0.290463
Time = 0.00992

PIMPLE: iteration 1
diagonal:  Solving for rho, Initial residual = 0, Final residual = 0, No Iterations 0
smoothSolver:  Solving for Ux, Initial residual = 0.00034607, Final residual = 5.1204e-17, No Iterations 1
smoothSolver:  Solving for e, Initial residual = 0.000636239, Final residual = 5.88008e-16, No Iterations 7
smoothSolver:  Solving for p, Initial residual = 0.000352525, Final residual = 9.03757e-17, No Iterations 6
diagonal:  Solving for rho, Initial residual = 0, Final residual = 0, No Iterations 0
time step continuity errors : sum local = 1.33434e-16, global = -4.26273e-17, cumulative = -4.86119e-14
smoothSolver:  Solving for p, Initial residual = 1.06495e-06, Final residual = 7.63838e-17, No Iterations 5
diagonal:  Solving for rho, Initial residual = 0, Final residual = 0, No Iterations 0
time step continuity errors : sum local = 1.41166e-16, global = -1.52665e-17, cumulative = -4.86272e-14
ExecutionTime = 2.37 s  ClockTime = 3 s

Courant Number mean: 0.201812 max: 0.290312
Time = 0.00993

PIMPLE: iteration 1
diagonal:  Solving for rho, Initial residual = 0, Final residual = 0, No Iterations 0
smoothSolver:  Solving for Ux, Initial residual = 0.000346406, Final residual = 4.78307e-17, No Iterations 1
smoothSolver:  Solving for e, Initial residual = 0.000635536, Final residual = 5.8832e-16, No Iterations 7
smoothSolver:  Solving for p, Initial residual = 0.000351678, Final residual = 8.90482e-17, No Iterations 6
diagonal:  Solving for rho, Initial residual = 0, Final residual = 0, No Iterations 0
time step continuity errors : sum local = 1.41187e-16, global = -4.02541e-17, cumulative = -4.86674e-14
smoothSolver:  Solving for p, Initial residual = 7.47409e-07, Final residual = 8.93757e-16, No Iterations 4
diagonal:  Solving for rho, Initial residual = 0, Final residual = 0, No Iterations 0
time step continuity errors : sum local = 8.60604e-16, global = 3.21636e-16, cumulative = -4.83458e-14
ExecutionTime = 2.38 s  ClockTime = 3 s

Courant Number mean: 0.20187 max: 0.290087
Time = 0.00994

PIMPLE: iteration 1
diagonal:  Solving for rho, Initial residual = 0, Final residual = 0, No Iterations 0
smoothSolver:  Solving for Ux, Initial residual = 0.000346427, Final residual = 4.52113e-17, No Iterations 1
smoothSolver:  Solving for e, Initial residual = 0.000636468, Final residual = 5.88077e-16, No Iterations 7
smoothSolver:  Solving for p, Initial residual = 0.000351148, Final residual = 8.80529e-17, No Iterations 6
diagonal:  Solving for rho, Initial residual = 0, Final residual = 0, No Iterations 0
time step continuity errors : sum local = 1.4448e-16, global = -2.8658e-17, cumulative = -4.83744e-14
smoothSolver:  Solving for p, Initial residual = 6.55133e-07, Final residual = 7.91835e-16, No Iterations 4
diagonal:  Solving for rho, Initial residual = 0, Final residual = 0, No Iterations 0
time step continuity errors : sum local = 7.5671e-16, global = 2.81126e-16, cumulative = -4.80933e-14
ExecutionTime = 2.38 s  ClockTime = 3 s

Courant Number mean: 0.201928 max: 0.289825
Time = 0.00995

PIMPLE: iteration 1
diagonal:  Solving for rho, Initial residual = 0, Final residual = 0, No Iterations 0
smoothSolver:  Solving for Ux, Initial residual = 0.000346242, Final residual = 4.91396e-17, No Iterations 1
smoothSolver:  Solving for e, Initial residual = 0.000637031, Final residual = 5.88829e-16, No Iterations 7
smoothSolver:  Solving for p, Initial residual = 0.000351517, Final residual = 8.49808e-17, No Iterations 6
diagonal:  Solving for rho, Initial residual = 0, Final residual = 0, No Iterations 0
time step continuity errors : sum local = 1.43113e-16, global = -3.95717e-17, cumulative = -4.81329e-14
smoothSolver:  Solving for p, Initial residual = 7.07127e-07, Final residual = 7.82668e-16, No Iterations 4
diagonal:  Solving for rho, Initial residual = 0, Final residual = 0, No Iterations 0
time step continuity errors : sum local = 7.47598e-16, global = 2.73134e-16, cumulative = -4.78597e-14
ExecutionTime = 2.38 s  ClockTime = 3 s

Courant Number mean: 0.201986 max: 0.289726
Time = 0.00996

PIMPLE: iteration 1
diagonal:  Solving for rho, Initial residual = 0, Final residual = 0, No Iterations 0
smoothSolver:  Solving for Ux, Initial residual = 0.000346092, Final residual = 4.60897e-17, No Iterations 1
smoothSolver:  Solving for e, Initial residual = 0.000636952, Final residual = 5.89424e-16, No Iterations 7
smoothSolver:  Solving for p, Initial residual = 0.00035179, Final residual = 8.72818e-17, No Iterations 6
diagonal:  Solving for rho, Initial residual = 0, Final residual = 0, No Iterations 0
time step continuity errors : sum local = 1.4611e-16, global = -2.84681e-17, cumulative = -4.78882e-14
smoothSolver:  Solving for p, Initial residual = 6.91461e-07, Final residual = 7.68915e-16, No Iterations 4
diagonal:  Solving for rho, Initial residual = 0, Final residual = 0, No Iterations 0
time step continuity errors : sum local = 7.47212e-16, global = 3.06404e-16, cumulative = -4.75818e-14
ExecutionTime = 2.38 s  ClockTime = 3 s

Courant Number mean: 0.202044 max: 0.289666
Time = 0.00997

PIMPLE: iteration 1
diagonal:  Solving for rho, Initial residual = 0, Final residual = 0, No Iterations 0
smoothSolver:  Solving for Ux, Initial residual = 0.000346035, Final residual = 4.8688e-17, No Iterations 1
smoothSolver:  Solving for e, Initial residual = 0.000636502, Final residual = 5.89283e-16, No Iterations 7
smoothSolver:  Solving for p, Initial residual = 0.000351876, Final residual = 9.04753e-17, No Iterations 6
diagonal:  Solving for rho, Initial residual = 0, Final residual = 0, No Iterations 0
time step continuity errors : sum local = 1.47322e-16, global = -4.5139e-17, cumulative = -4.76269e-14
smoothSolver:  Solving for p, Initial residual = 6.25158e-07, Final residual = 7.34538e-16, No Iterations 4
diagonal:  Solving for rho, Initial residual = 0, Final residual = 0, No Iterations 0
time step continuity errors : sum local = 7.03374e-16, global = 3.2758e-16, cumulative = -4.72994e-14
ExecutionTime = 2.39 s  ClockTime = 3 s

Courant Number mean: 0.202101 max: 0.289565
Time = 0.00998

PIMPLE: iteration 1
diagonal:  Solving for rho, Initial residual = 0, Final residual = 0, No Iterations 0
smoothSolver:  Solving for Ux, Initial residual = 0.000346022, Final residual = 4.76585e-17, No Iterations 1
smoothSolver:  Solving for e, Initial residual = 0.000635804, Final residual = 5.88812e-16, No Iterations 7
smoothSolver:  Solving for p, Initial residual = 0.000351853, Final residual = 8.50775e-17, No Iterations 6
diagonal:  Solving for rho, Initial residual = 0, Final residual = 0, No Iterations 0
time step continuity errors : sum local = 1.35635e-16, global = -3.95892e-17, cumulative = -4.7339e-14
smoothSolver:  Solving for p, Initial residual = 5.64718e-07, Final residual = 7.27763e-16, No Iterations 4
diagonal:  Solving for rho, Initial residual = 0, Final residual = 0, No Iterations 0
time step continuity errors : sum local = 7.03379e-16, global = 3.3507e-16, cumulative = -4.70039e-14
ExecutionTime = 2.39 s  ClockTime = 3 s

Courant Number mean: 0.202159 max: 0.289477
Time = 0.00999

PIMPLE: iteration 1
diagonal:  Solving for rho, Initial residual = 0, Final residual = 0, No Iterations 0
smoothSolver:  Solving for Ux, Initial residual = 0.000346078, Final residual = 4.71658e-17, No Iterations 1
smoothSolver:  Solving for e, Initial residual = 0.000635382, Final residual = 5.89071e-16, No Iterations 7
smoothSolver:  Solving for p, Initial residual = 0.000351784, Final residual = 9.02832e-17, No Iterations 6
diagonal:  Solving for rho, Initial residual = 0, Final residual = 0, No Iterations 0
time step continuity errors : sum local = 1.39526e-16, global = -4.12821e-17, cumulative = -4.70452e-14
smoothSolver:  Solving for p, Initial residual = 5.52934e-07, Final residual = 7.15946e-16, No Iterations 4
diagonal:  Solving for rho, Initial residual = 0, Final residual = 0, No Iterations 0
time step continuity errors : sum local = 6.95544e-16, global = 3.47028e-16, cumulative = -4.66981e-14
ExecutionTime = 2.39 s  ClockTime = 3 s

Courant Number mean: 0.202217 max: 0.28947
Time = 0.01

PIMPLE: iteration 1
diagonal:  Solving for rho, Initial residual = 0, Final residual = 0, No Iterations 0
smoothSolver:  Solving for Ux, Initial residual = 0.000346246, Final residual = 5.04894e-17, No Iterations 1
smoothSolver:  Solving for e, Initial residual = 0.000635096, Final residual = 5.88983e-16, No Iterations 7
smoothSolver:  Solving for p, Initial residual = 0.00035185, Final residual = 8.82868e-17, No Iterations 6
diagonal:  Solving for rho, Initial residual = 0, Final residual = 0, No Iterations 0
time step continuity errors : sum local = 1.456e-16, global = -4.1983e-17, cumulative = -4.67401e-14
smoothSolver:  Solving for p, Initial residual = 5.23739e-07, Final residual = 6.84874e-16, No Iterations 4
diagonal:  Solving for rho, Initial residual = 0, Final residual = 0, No Iterations 0
time step continuity errors : sum local = 6.62795e-16, global = 3.27725e-16, cumulative = -4.64124e-14
ExecutionTime = 2.4 s  ClockTime = 3 s

    functionObjects::mag mag(U) writing field: mag(U)
End

