/*---------------------------------------------------------------------------*\
| =========                 |                                                 |
| \\      /  F ield         | OpenFOAM: The Open Source CFD Toolbox           |
|  \\    /   O peration     | Version:  2012                                  |
|   \\  /    A nd           | Website:  www.openfoam.com                      |
|    \\/     M anipulation  |                                                 |
\*---------------------------------------------------------------------------*/
Build  : _269d0ffd5c-20210619 OPENFOAM=2012 patch=210618
Arch   : "LSB;label=32;scalar=64"
Exec   : mhdPimpleFoam
Date   : Apr 04 2022
Time   : 10:42:37
Host   : gabrielmarconcini-Lenovo-G50-80
PID    : 47972
I/O    : uncollated
Case   : /home/gabrielmarconcini/Documentos/TCC/PTCC/ShockTube/sim/NewSolver/ShockTube2_1000
nProcs : 1
trapFpe: Floating point exception trapping enabled (FOAM_SIGFPE).
fileModificationChecking : Monitoring run-time modified files using timeStampMaster (fileModificationSkew 5, maxFileModificationPolls 20)
allowSystemOperations : Allowing user-supplied system call operations

// * * * * * * * * * * * * * * * * * * * * * * * * * * * * * * * * * * * * * //
Create time

Create mesh for time = 0


PIMPLE: no residual control data found. Calculations will employ 2 corrector loops

Reading thermophysical properties

Selecting thermodynamics package 
{
    type            hePsiThermo;
    mixture         pureMixture;
    transport       const;
    thermo          eConst;
    equationOfState perfectGas;
    specie          specie;
    energy          sensibleInternalEnergy;
}

Reading field U

Reading/calculating face flux field phi

Creating turbulence model

Selecting turbulence model type laminar
Selecting laminar stress model Stokes
Creating field dpdt

Creating field kinetic energy K

No MRF models present

No finite volume options present
Courant Number mean: 0 max: 0

Starting time loop

Courant Number mean: 0 max: 0
Time = 1e-05

PIMPLE: iteration 1
diagonal:  Solving for rho, Initial residual = 0, Final residual = 0, No Iterations 0
smoothSolver:  Solving for Ux, Initial residual = 1, Final residual = 0, No Iterations 1
smoothSolver:  Solving for e, Initial residual = 2.85024e-17, Final residual = 2.85024e-17, No Iterations 0
smoothSolver:  Solving for p, Initial residual = 0.000178178, Final residual = 6.67182e-17, No Iterations 6
diagonal:  Solving for rho, Initial residual = 0, Final residual = 0, No Iterations 0
time step continuity errors : sum local = 1.28481e-16, global = -8.60413e-17, cumulative = -8.60413e-17
PIMPLE: iteration 2
smoothSolver:  Solving for Ux, Initial residual = 0.0374577, Final residual = 6.57125e-18, No Iterations 1
smoothSolver:  Solving for e, Initial residual = 0.00110255, Final residual = 8.85683e-18, No Iterations 3
smoothSolver:  Solving for p, Initial residual = 9.07615e-05, Final residual = 8.75862e-16, No Iterations 5
diagonal:  Solving for rho, Initial residual = 0, Final residual = 0, No Iterations 0
time step continuity errors : sum local = 1.5894e-15, global = -6.23583e-16, cumulative = -7.09624e-16
ExecutionTime = 0.06 s  ClockTime = 0 s

Courant Number mean: 0.000291073 max: 0.201006
Time = 2e-05

PIMPLE: iteration 1
diagonal:  Solving for rho, Initial residual = 0, Final residual = 0, No Iterations 0
smoothSolver:  Solving for Ux, Initial residual = 0.130562, Final residual = 1.40944e-17, No Iterations 1
smoothSolver:  Solving for e, Initial residual = 0.000629115, Final residual = 9.49204e-18, No Iterations 3
smoothSolver:  Solving for p, Initial residual = 0.000322435, Final residual = 7.84853e-17, No Iterations 6
diagonal:  Solving for rho, Initial residual = 0, Final residual = 0, No Iterations 0
time step continuity errors : sum local = 1.8111e-16, global = -6.31398e-17, cumulative = -7.72764e-16
PIMPLE: iteration 2
smoothSolver:  Solving for Ux, Initial residual = 0.0220182, Final residual = 1.21526e-17, No Iterations 1
smoothSolver:  Solving for e, Initial residual = 0.000375753, Final residual = 1.86083e-17, No Iterations 4
smoothSolver:  Solving for p, Initial residual = 4.49446e-05, Final residual = 3.96971e-16, No Iterations 5
diagonal:  Solving for rho, Initial residual = 0, Final residual = 0, No Iterations 0
time step continuity errors : sum local = 7.38214e-16, global = -3.63307e-17, cumulative = -8.09095e-16
ExecutionTime = 0.06 s  ClockTime = 0 s

Courant Number mean: 0.000602633 max: 0.291568
Time = 3e-05

PIMPLE: iteration 1
diagonal:  Solving for rho, Initial residual = 0, Final residual = 0, No Iterations 0
smoothSolver:  Solving for Ux, Initial residual = 0.0697894, Final residual = 2.1767e-17, No Iterations 1
smoothSolver:  Solving for e, Initial residual = 0.00079524, Final residual = 5.2198e-17, No Iterations 4
smoothSolver:  Solving for p, Initial residual = 0.000371918, Final residual = 7.77377e-17, No Iterations 6
diagonal:  Solving for rho, Initial residual = 0, Final residual = 0, No Iterations 0
time step continuity errors : sum local = 1.6496e-16, global = -6.34613e-17, cumulative = -8.72556e-16
PIMPLE: iteration 2
smoothSolver:  Solving for Ux, Initial residual = 0.00655585, Final residual = 9.51497e-18, No Iterations 1
smoothSolver:  Solving for e, Initial residual = 0.000272149, Final residual = 2.34713e-17, No Iterations 5
smoothSolver:  Solving for p, Initial residual = 5.82301e-05, Final residual = 3.4283e-16, No Iterations 5
diagonal:  Solving for rho, Initial residual = 0, Final residual = 0, No Iterations 0
time step continuity errors : sum local = 6.30137e-16, global = 1.85166e-16, cumulative = -6.87391e-16
ExecutionTime = 0.06 s  ClockTime = 0 s

Courant Number mean: 0.000784353 max: 0.287643
Time = 4e-05

PIMPLE: iteration 1
diagonal:  Solving for rho, Initial residual = 0, Final residual = 0, No Iterations 0
smoothSolver:  Solving for Ux, Initial residual = 0.0488875, Final residual = 1.22384e-17, No Iterations 1
smoothSolver:  Solving for e, Initial residual = 0.000811793, Final residual = 3.77288e-17, No Iterations 5
smoothSolver:  Solving for p, Initial residual = 0.000365516, Final residual = 7.27777e-17, No Iterations 6
diagonal:  Solving for rho, Initial residual = 0, Final residual = 0, No Iterations 0
time step continuity errors : sum local = 1.52372e-16, global = -7.23894e-17, cumulative = -7.5978e-16
PIMPLE: iteration 2
smoothSolver:  Solving for Ux, Initial residual = 0.00438618, Final residual = 1.43033e-17, No Iterations 1
smoothSolver:  Solving for e, Initial residual = 0.000246417, Final residual = 6.92286e-16, No Iterations 4
smoothSolver:  Solving for p, Initial residual = 5.94689e-05, Final residual = 3.39362e-16, No Iterations 5
diagonal:  Solving for rho, Initial residual = 0, Final residual = 0, No Iterations 0
time step continuity errors : sum local = 6.2017e-16, global = 2.39452e-16, cumulative = -5.20329e-16
ExecutionTime = 0.07 s  ClockTime = 0 s

Courant Number mean: 0.000971911 max: 0.277971
Time = 5e-05

PIMPLE: iteration 1
diagonal:  Solving for rho, Initial residual = 0, Final residual = 0, No Iterations 0
smoothSolver:  Solving for Ux, Initial residual = 0.03878, Final residual = 9.3973e-18, No Iterations 1
smoothSolver:  Solving for e, Initial residual = 0.000843544, Final residual = 5.71997e-17, No Iterations 6
smoothSolver:  Solving for p, Initial residual = 0.000349561, Final residual = 7.30968e-17, No Iterations 6
diagonal:  Solving for rho, Initial residual = 0, Final residual = 0, No Iterations 0
time step continuity errors : sum local = 1.53905e-16, global = -6.80367e-17, cumulative = -5.88365e-16
PIMPLE: iteration 2
smoothSolver:  Solving for Ux, Initial residual = 0.0033128, Final residual = 2.27364e-17, No Iterations 1
smoothSolver:  Solving for e, Initial residual = 0.000270979, Final residual = 1.49443e-16, No Iterations 6
smoothSolver:  Solving for p, Initial residual = 5.82335e-05, Final residual = 3.41697e-16, No Iterations 5
diagonal:  Solving for rho, Initial residual = 0, Final residual = 0, No Iterations 0
time step continuity errors : sum local = 6.26304e-16, global = 2.55923e-16, cumulative = -3.32442e-16
ExecutionTime = 0.07 s  ClockTime = 0 s

Courant Number mean: 0.00117074 max: 0.273369
Time = 6e-05

PIMPLE: iteration 1
diagonal:  Solving for rho, Initial residual = 0, Final residual = 0, No Iterations 0
smoothSolver:  Solving for Ux, Initial residual = 0.0334042, Final residual = 2.52948e-17, No Iterations 1
smoothSolver:  Solving for e, Initial residual = 0.000870337, Final residual = 7.15754e-16, No Iterations 5
smoothSolver:  Solving for p, Initial residual = 0.000328353, Final residual = 7.1395e-17, No Iterations 6
diagonal:  Solving for rho, Initial residual = 0, Final residual = 0, No Iterations 0
time step continuity errors : sum local = 1.51234e-16, global = -5.40881e-17, cumulative = -3.8653e-16
PIMPLE: iteration 2
smoothSolver:  Solving for Ux, Initial residual = 0.00244915, Final residual = 1.60868e-17, No Iterations 1
smoothSolver:  Solving for e, Initial residual = 0.000242275, Final residual = 8.94361e-16, No Iterations 5
smoothSolver:  Solving for p, Initial residual = 5.48869e-05, Final residual = 3.47155e-16, No Iterations 5
diagonal:  Solving for rho, Initial residual = 0, Final residual = 0, No Iterations 0
time step continuity errors : sum local = 6.42725e-16, global = 2.62947e-16, cumulative = -1.23584e-16
ExecutionTime = 0.07 s  ClockTime = 0 s

Courant Number mean: 0.00137608 max: 0.287513
Time = 7e-05

PIMPLE: iteration 1
diagonal:  Solving for rho, Initial residual = 0, Final residual = 0, No Iterations 0
smoothSolver:  Solving for Ux, Initial residual = 0.0289324, Final residual = 1.08652e-17, No Iterations 1
smoothSolver:  Solving for e, Initial residual = 0.000857526, Final residual = 3.46621e-16, No Iterations 6
smoothSolver:  Solving for p, Initial residual = 0.000317333, Final residual = 7.06138e-17, No Iterations 6
diagonal:  Solving for rho, Initial residual = 0, Final residual = 0, No Iterations 0
time step continuity errors : sum local = 1.52099e-16, global = -6.05925e-17, cumulative = -1.84176e-16
PIMPLE: iteration 2
smoothSolver:  Solving for Ux, Initial residual = 0.00197337, Final residual = 9.09225e-18, No Iterations 1
smoothSolver:  Solving for e, Initial residual = 0.000230963, Final residual = 6.08028e-16, No Iterations 6
smoothSolver:  Solving for p, Initial residual = 5.02678e-05, Final residual = 3.2557e-16, No Iterations 5
diagonal:  Solving for rho, Initial residual = 0, Final residual = 0, No Iterations 0
time step continuity errors : sum local = 5.99173e-16, global = 2.43532e-16, cumulative = 5.93559e-17
ExecutionTime = 0.07 s  ClockTime = 0 s

Courant Number mean: 0.00158378 max: 0.293963
Time = 8e-05

PIMPLE: iteration 1
diagonal:  Solving for rho, Initial residual = 0, Final residual = 0, No Iterations 0
smoothSolver:  Solving for Ux, Initial residual = 0.0259722, Final residual = 7.60217e-18, No Iterations 1
smoothSolver:  Solving for e, Initial residual = 0.000903093, Final residual = 6.7093e-17, No Iterations 7
smoothSolver:  Solving for p, Initial residual = 0.000315853, Final residual = 7.07736e-17, No Iterations 6
diagonal:  Solving for rho, Initial residual = 0, Final residual = 0, No Iterations 0
time step continuity errors : sum local = 1.50319e-16, global = -5.3173e-17, cumulative = 6.1829e-18
PIMPLE: iteration 2
smoothSolver:  Solving for Ux, Initial residual = 0.00159788, Final residual = 1.24928e-17, No Iterations 1
smoothSolver:  Solving for e, Initial residual = 0.000268625, Final residual = 5.28995e-16, No Iterations 6
smoothSolver:  Solving for p, Initial residual = 4.45753e-05, Final residual = 3.27877e-16, No Iterations 5
diagonal:  Solving for rho, Initial residual = 0, Final residual = 0, No Iterations 0
time step continuity errors : sum local = 6.06444e-16, global = 2.12123e-16, cumulative = 2.18306e-16
ExecutionTime = 0.08 s  ClockTime = 0 s

Courant Number mean: 0.00179344 max: 0.295683
Time = 9e-05

PIMPLE: iteration 1
diagonal:  Solving for rho, Initial residual = 0, Final residual = 0, No Iterations 0
smoothSolver:  Solving for Ux, Initial residual = 0.0233823, Final residual = 1.69481e-17, No Iterations 1
smoothSolver:  Solving for e, Initial residual = 0.00091437, Final residual = 6.09361e-17, No Iterations 7
smoothSolver:  Solving for p, Initial residual = 0.000302202, Final residual = 6.87882e-17, No Iterations 6
diagonal:  Solving for rho, Initial residual = 0, Final residual = 0, No Iterations 0
time step continuity errors : sum local = 1.44358e-16, global = -4.52341e-17, cumulative = 1.73072e-16
PIMPLE: iteration 2
smoothSolver:  Solving for Ux, Initial residual = 0.00133957, Final residual = 1.33872e-17, No Iterations 1
smoothSolver:  Solving for e, Initial residual = 0.000231081, Final residual = 4.88237e-17, No Iterations 7
smoothSolver:  Solving for p, Initial residual = 4.09721e-05, Final residual = 3.09474e-16, No Iterations 5
diagonal:  Solving for rho, Initial residual = 0, Final residual = 0, No Iterations 0
time step continuity errors : sum local = 5.73229e-16, global = 2.00425e-16, cumulative = 3.73497e-16
ExecutionTime = 0.08 s  ClockTime = 0 s

Courant Number mean: 0.00200353 max: 0.297657
Time = 0.0001

PIMPLE: iteration 1
diagonal:  Solving for rho, Initial residual = 0, Final residual = 0, No Iterations 0
smoothSolver:  Solving for Ux, Initial residual = 0.0206764, Final residual = 1.26231e-17, No Iterations 1
smoothSolver:  Solving for e, Initial residual = 0.000927425, Final residual = 1.40244e-16, No Iterations 7
smoothSolver:  Solving for p, Initial residual = 0.000302848, Final residual = 6.75496e-17, No Iterations 6
diagonal:  Solving for rho, Initial residual = 0, Final residual = 0, No Iterations 0
time step continuity errors : sum local = 1.51432e-16, global = -4.65202e-17, cumulative = 3.26977e-16
PIMPLE: iteration 2
smoothSolver:  Solving for Ux, Initial residual = 0.00111707, Final residual = 1.05768e-17, No Iterations 1
smoothSolver:  Solving for e, Initial residual = 0.000191277, Final residual = 4.66815e-17, No Iterations 7
smoothSolver:  Solving for p, Initial residual = 3.82108e-05, Final residual = 3.02978e-16, No Iterations 5
diagonal:  Solving for rho, Initial residual = 0, Final residual = 0, No Iterations 0
time step continuity errors : sum local = 5.66799e-16, global = 1.79354e-16, cumulative = 5.0633e-16
ExecutionTime = 0.08 s  ClockTime = 0 s

Courant Number mean: 0.0022141 max: 0.301772
Time = 0.00011

PIMPLE: iteration 1
diagonal:  Solving for rho, Initial residual = 0, Final residual = 0, No Iterations 0
smoothSolver:  Solving for Ux, Initial residual = 0.0189103, Final residual = 6.29303e-18, No Iterations 1
smoothSolver:  Solving for e, Initial residual = 0.000956653, Final residual = 1.64397e-16, No Iterations 7
smoothSolver:  Solving for p, Initial residual = 0.000297532, Final residual = 6.64267e-17, No Iterations 6
diagonal:  Solving for rho, Initial residual = 0, Final residual = 0, No Iterations 0
time step continuity errors : sum local = 1.51333e-16, global = -3.56877e-17, cumulative = 4.70643e-16
PIMPLE: iteration 2
smoothSolver:  Solving for Ux, Initial residual = 0.000992113, Final residual = 8.09195e-18, No Iterations 1
smoothSolver:  Solving for e, Initial residual = 0.000181499, Final residual = 8.21914e-17, No Iterations 7
smoothSolver:  Solving for p, Initial residual = 3.72349e-05, Final residual = 3.01058e-16, No Iterations 5
diagonal:  Solving for rho, Initial residual = 0, Final residual = 0, No Iterations 0
time step continuity errors : sum local = 5.59627e-16, global = 1.7322e-16, cumulative = 6.43863e-16
ExecutionTime = 0.09 s  ClockTime = 0 s

Courant Number mean: 0.00242496 max: 0.301684
Time = 0.00012

PIMPLE: iteration 1
diagonal:  Solving for rho, Initial residual = 0, Final residual = 0, No Iterations 0
smoothSolver:  Solving for Ux, Initial residual = 0.0173214, Final residual = 1.16081e-17, No Iterations 1
smoothSolver:  Solving for e, Initial residual = 0.000968325, Final residual = 2.94184e-16, No Iterations 7
smoothSolver:  Solving for p, Initial residual = 0.000300466, Final residual = 6.63029e-17, No Iterations 6
diagonal:  Solving for rho, Initial residual = 0, Final residual = 0, No Iterations 0
time step continuity errors : sum local = 1.39561e-16, global = -4.85976e-17, cumulative = 5.95265e-16
PIMPLE: iteration 2
smoothSolver:  Solving for Ux, Initial residual = 0.000852015, Final residual = 7.30347e-18, No Iterations 1
smoothSolver:  Solving for e, Initial residual = 0.000213836, Final residual = 4.40057e-17, No Iterations 7
smoothSolver:  Solving for p, Initial residual = 4.10743e-05, Final residual = 3.10152e-16, No Iterations 5
diagonal:  Solving for rho, Initial residual = 0, Final residual = 0, No Iterations 0
time step continuity errors : sum local = 5.7412e-16, global = 1.38744e-16, cumulative = 7.3401e-16
ExecutionTime = 0.09 s  ClockTime = 0 s

Courant Number mean: 0.0026363 max: 0.302545
Time = 0.00013

PIMPLE: iteration 1
diagonal:  Solving for rho, Initial residual = 0, Final residual = 0, No Iterations 0
smoothSolver:  Solving for Ux, Initial residual = 0.0157942, Final residual = 1.41966e-17, No Iterations 1
smoothSolver:  Solving for e, Initial residual = 0.00100414, Final residual = 3.21285e-16, No Iterations 7
smoothSolver:  Solving for p, Initial residual = 0.00029877, Final residual = 6.71798e-17, No Iterations 6
diagonal:  Solving for rho, Initial residual = 0, Final residual = 0, No Iterations 0
time step continuity errors : sum local = 1.41737e-16, global = -4.94385e-17, cumulative = 6.84571e-16
PIMPLE: iteration 2
smoothSolver:  Solving for Ux, Initial residual = 0.000772792, Final residual = 1.17854e-17, No Iterations 1
smoothSolver:  Solving for e, Initial residual = 0.000192358, Final residual = 9.28199e-17, No Iterations 7
smoothSolver:  Solving for p, Initial residual = 3.89627e-05, Final residual = 3.11474e-16, No Iterations 5
diagonal:  Solving for rho, Initial residual = 0, Final residual = 0, No Iterations 0
time step continuity errors : sum local = 5.72661e-16, global = 1.40204e-16, cumulative = 8.24775e-16
ExecutionTime = 0.09 s  ClockTime = 0 s

Courant Number mean: 0.00284772 max: 0.303651
Time = 0.00014

PIMPLE: iteration 1
diagonal:  Solving for rho, Initial residual = 0, Final residual = 0, No Iterations 0
smoothSolver:  Solving for Ux, Initial residual = 0.0145485, Final residual = 1.59203e-17, No Iterations 1
smoothSolver:  Solving for e, Initial residual = 0.00100927, Final residual = 3.73373e-16, No Iterations 7
smoothSolver:  Solving for p, Initial residual = 0.000305057, Final residual = 6.66219e-17, No Iterations 6
diagonal:  Solving for rho, Initial residual = 0, Final residual = 0, No Iterations 0
time step continuity errors : sum local = 1.49849e-16, global = -4.68664e-17, cumulative = 7.77908e-16
PIMPLE: iteration 2
smoothSolver:  Solving for Ux, Initial residual = 0.000701585, Final residual = 2.26325e-17, No Iterations 1
smoothSolver:  Solving for e, Initial residual = 0.000168931, Final residual = 7.02127e-17, No Iterations 7
smoothSolver:  Solving for p, Initial residual = 3.63052e-05, Final residual = 3.05211e-16, No Iterations 5
diagonal:  Solving for rho, Initial residual = 0, Final residual = 0, No Iterations 0
time step continuity errors : sum local = 5.62372e-16, global = 1.21408e-16, cumulative = 8.99316e-16
ExecutionTime = 0.1 s  ClockTime = 0 s

Courant Number mean: 0.0030592 max: 0.301596
Time = 0.00015

PIMPLE: iteration 1
diagonal:  Solving for rho, Initial residual = 0, Final residual = 0, No Iterations 0
smoothSolver:  Solving for Ux, Initial residual = 0.0133867, Final residual = 1.38187e-17, No Iterations 1
smoothSolver:  Solving for e, Initial residual = 0.00103252, Final residual = 4.05287e-16, No Iterations 7
smoothSolver:  Solving for p, Initial residual = 0.00030221, Final residual = 6.42171e-17, No Iterations 6
diagonal:  Solving for rho, Initial residual = 0, Final residual = 0, No Iterations 0
time step continuity errors : sum local = 1.50047e-16, global = -4.32556e-17, cumulative = 8.5606e-16
PIMPLE: iteration 2
smoothSolver:  Solving for Ux, Initial residual = 0.000639777, Final residual = 1.90608e-17, No Iterations 1
smoothSolver:  Solving for e, Initial residual = 0.000194234, Final residual = 8.12354e-17, No Iterations 7
smoothSolver:  Solving for p, Initial residual = 3.89524e-05, Final residual = 3.1715e-16, No Iterations 5
diagonal:  Solving for rho, Initial residual = 0, Final residual = 0, No Iterations 0
time step continuity errors : sum local = 5.89008e-16, global = 1.10649e-16, cumulative = 9.6671e-16
ExecutionTime = 0.1 s  ClockTime = 0 s

Courant Number mean: 0.00327073 max: 0.30236
Time = 0.00016

PIMPLE: iteration 1
diagonal:  Solving for rho, Initial residual = 0, Final residual = 0, No Iterations 0
smoothSolver:  Solving for Ux, Initial residual = 0.0124857, Final residual = 1.45245e-17, No Iterations 1
smoothSolver:  Solving for e, Initial residual = 0.00102626, Final residual = 3.74139e-16, No Iterations 7
smoothSolver:  Solving for p, Initial residual = 0.000305989, Final residual = 6.54868e-17, No Iterations 6
diagonal:  Solving for rho, Initial residual = 0, Final residual = 0, No Iterations 0
time step continuity errors : sum local = 1.47994e-16, global = -3.44759e-17, cumulative = 9.32234e-16
PIMPLE: iteration 2
smoothSolver:  Solving for Ux, Initial residual = 0.000595604, Final residual = 1.71056e-17, No Iterations 1
smoothSolver:  Solving for e, Initial residual = 0.000170416, Final residual = 5.12285e-17, No Iterations 7
smoothSolver:  Solving for p, Initial residual = 3.57955e-05, Final residual = 3.01741e-16, No Iterations 5
diagonal:  Solving for rho, Initial residual = 0, Final residual = 0, No Iterations 0
time step continuity errors : sum local = 5.6027e-16, global = 9.4178e-17, cumulative = 1.02641e-15
ExecutionTime = 0.1 s  ClockTime = 0 s

Courant Number mean: 0.0034824 max: 0.30128
Time = 0.00017

PIMPLE: iteration 1
diagonal:  Solving for rho, Initial residual = 0, Final residual = 0, No Iterations 0
smoothSolver:  Solving for Ux, Initial residual = 0.0116383, Final residual = 1.31249e-17, No Iterations 1
smoothSolver:  Solving for e, Initial residual = 0.00104462, Final residual = 4.38384e-16, No Iterations 7
smoothSolver:  Solving for p, Initial residual = 0.000306589, Final residual = 6.63559e-17, No Iterations 6
diagonal:  Solving for rho, Initial residual = 0, Final residual = 0, No Iterations 0
time step continuity errors : sum local = 1.39932e-16, global = -3.52178e-17, cumulative = 9.91194e-16
PIMPLE: iteration 2
smoothSolver:  Solving for Ux, Initial residual = 0.000542485, Final residual = 1.47401e-17, No Iterations 1
smoothSolver:  Solving for e, Initial residual = 0.000191857, Final residual = 8.77087e-17, No Iterations 7
smoothSolver:  Solving for p, Initial residual = 3.69548e-05, Final residual = 3.19445e-16, No Iterations 5
diagonal:  Solving for rho, Initial residual = 0, Final residual = 0, No Iterations 0
time step continuity errors : sum local = 5.90641e-16, global = 7.70143e-17, cumulative = 1.06821e-15
ExecutionTime = 0.11 s  ClockTime = 0 s

Courant Number mean: 0.00369416 max: 0.300971
Time = 0.00018

PIMPLE: iteration 1
diagonal:  Solving for rho, Initial residual = 0, Final residual = 0, No Iterations 0
smoothSolver:  Solving for Ux, Initial residual = 0.0109684, Final residual = 1.34829e-17, No Iterations 1
smoothSolver:  Solving for e, Initial residual = 0.0010347, Final residual = 3.86856e-16, No Iterations 7
smoothSolver:  Solving for p, Initial residual = 0.00030724, Final residual = 6.54489e-17, No Iterations 6
diagonal:  Solving for rho, Initial residual = 0, Final residual = 0, No Iterations 0
time step continuity errors : sum local = 1.4238e-16, global = -4.00405e-17, cumulative = 1.02817e-15
PIMPLE: iteration 2
smoothSolver:  Solving for Ux, Initial residual = 0.000507833, Final residual = 7.98871e-18, No Iterations 1
smoothSolver:  Solving for e, Initial residual = 0.000169393, Final residual = 6.32386e-17, No Iterations 7
smoothSolver:  Solving for p, Initial residual = 3.559e-05, Final residual = 2.98466e-16, No Iterations 5
diagonal:  Solving for rho, Initial residual = 0, Final residual = 0, No Iterations 0
time step continuity errors : sum local = 5.48424e-16, global = 8.34198e-17, cumulative = 1.11159e-15
ExecutionTime = 0.11 s  ClockTime = 0 s

Courant Number mean: 0.00390603 max: 0.299784
Time = 0.00019

PIMPLE: iteration 1
diagonal:  Solving for rho, Initial residual = 0, Final residual = 0, No Iterations 0
smoothSolver:  Solving for Ux, Initial residual = 0.010355, Final residual = 1.67688e-17, No Iterations 1
smoothSolver:  Solving for e, Initial residual = 0.00104991, Final residual = 4.88227e-16, No Iterations 7
smoothSolver:  Solving for p, Initial residual = 0.000305257, Final residual = 6.61175e-17, No Iterations 6
diagonal:  Solving for rho, Initial residual = 0, Final residual = 0, No Iterations 0
time step continuity errors : sum local = 1.46733e-16, global = -3.36597e-17, cumulative = 1.07793e-15
PIMPLE: iteration 2
smoothSolver:  Solving for Ux, Initial residual = 0.00046034, Final residual = 1.76839e-17, No Iterations 1
smoothSolver:  Solving for e, Initial residual = 0.000193399, Final residual = 8.6981e-17, No Iterations 7
smoothSolver:  Solving for p, Initial residual = 3.66399e-05, Final residual = 3.19506e-16, No Iterations 5
diagonal:  Solving for rho, Initial residual = 0, Final residual = 0, No Iterations 0
time step continuity errors : sum local = 5.9623e-16, global = 6.94464e-17, cumulative = 1.14737e-15
ExecutionTime = 0.11 s  ClockTime = 0 s

Courant Number mean: 0.00411802 max: 0.299932
Time = 0.0002

PIMPLE: iteration 1
diagonal:  Solving for rho, Initial residual = 0, Final residual = 0, No Iterations 0
smoothSolver:  Solving for Ux, Initial residual = 0.00984985, Final residual = 2.03873e-17, No Iterations 1
smoothSolver:  Solving for e, Initial residual = 0.00104217, Final residual = 4.54978e-16, No Iterations 7
smoothSolver:  Solving for p, Initial residual = 0.000305334, Final residual = 6.55847e-17, No Iterations 6
diagonal:  Solving for rho, Initial residual = 0, Final residual = 0, No Iterations 0
time step continuity errors : sum local = 1.45768e-16, global = -2.72542e-17, cumulative = 1.12012e-15
PIMPLE: iteration 2
smoothSolver:  Solving for Ux, Initial residual = 0.000441949, Final residual = 1.15374e-17, No Iterations 1
smoothSolver:  Solving for e, Initial residual = 0.00017459, Final residual = 7.27578e-17, No Iterations 7
smoothSolver:  Solving for p, Initial residual = 3.62148e-05, Final residual = 3.06938e-16, No Iterations 5
diagonal:  Solving for rho, Initial residual = 0, Final residual = 0, No Iterations 0
time step continuity errors : sum local = 5.60468e-16, global = 7.28594e-17, cumulative = 1.19298e-15
ExecutionTime = 0.11 s  ClockTime = 0 s

Courant Number mean: 0.00433012 max: 0.298661
Time = 0.00021

PIMPLE: iteration 1
diagonal:  Solving for rho, Initial residual = 0, Final residual = 0, No Iterations 0
smoothSolver:  Solving for Ux, Initial residual = 0.00938497, Final residual = 1.54057e-17, No Iterations 1
smoothSolver:  Solving for e, Initial residual = 0.00105535, Final residual = 5.2046e-16, No Iterations 7
smoothSolver:  Solving for p, Initial residual = 0.000303615, Final residual = 6.75655e-17, No Iterations 6
diagonal:  Solving for rho, Initial residual = 0, Final residual = 0, No Iterations 0
time step continuity errors : sum local = 1.50591e-16, global = -2.51026e-17, cumulative = 1.16788e-15
PIMPLE: iteration 2
smoothSolver:  Solving for Ux, Initial residual = 0.000396114, Final residual = 9.84721e-18, No Iterations 1
smoothSolver:  Solving for e, Initial residual = 0.000188742, Final residual = 8.17054e-17, No Iterations 7
smoothSolver:  Solving for p, Initial residual = 3.51721e-05, Final residual = 3.17491e-16, No Iterations 5
diagonal:  Solving for rho, Initial residual = 0, Final residual = 0, No Iterations 0
time step continuity errors : sum local = 5.83493e-16, global = 5.84408e-17, cumulative = 1.22632e-15
ExecutionTime = 0.12 s  ClockTime = 0 s

Courant Number mean: 0.00454233 max: 0.299131
Time = 0.00022

PIMPLE: iteration 1
diagonal:  Solving for rho, Initial residual = 0, Final residual = 0, No Iterations 0
smoothSolver:  Solving for Ux, Initial residual = 0.00895224, Final residual = 1.33843e-17, No Iterations 1
smoothSolver:  Solving for e, Initial residual = 0.00105883, Final residual = 4.75712e-16, No Iterations 7
smoothSolver:  Solving for p, Initial residual = 0.000304104, Final residual = 6.6717e-17, No Iterations 6
diagonal:  Solving for rho, Initial residual = 0, Final residual = 0, No Iterations 0
time step continuity errors : sum local = 1.44606e-16, global = -3.58856e-17, cumulative = 1.19043e-15
PIMPLE: iteration 2
smoothSolver:  Solving for Ux, Initial residual = 0.000384814, Final residual = 1.67759e-17, No Iterations 1
smoothSolver:  Solving for e, Initial residual = 0.000163257, Final residual = 8.22951e-17, No Iterations 7
smoothSolver:  Solving for p, Initial residual = 3.41112e-05, Final residual = 3.11055e-16, No Iterations 5
diagonal:  Solving for rho, Initial residual = 0, Final residual = 0, No Iterations 0
time step continuity errors : sum local = 5.73872e-16, global = 5.22826e-17, cumulative = 1.24271e-15
ExecutionTime = 0.12 s  ClockTime = 0 s

Courant Number mean: 0.00475461 max: 0.297938
Time = 0.00023

PIMPLE: iteration 1
diagonal:  Solving for rho, Initial residual = 0, Final residual = 0, No Iterations 0
smoothSolver:  Solving for Ux, Initial residual = 0.0085583, Final residual = 1.17067e-17, No Iterations 1
smoothSolver:  Solving for e, Initial residual = 0.00107207, Final residual = 4.28859e-16, No Iterations 7
smoothSolver:  Solving for p, Initial residual = 0.000301134, Final residual = 6.65584e-17, No Iterations 6
diagonal:  Solving for rho, Initial residual = 0, Final residual = 0, No Iterations 0
time step continuity errors : sum local = 1.41366e-16, global = -3.1607e-17, cumulative = 1.21111e-15
PIMPLE: iteration 2
smoothSolver:  Solving for Ux, Initial residual = 0.000352029, Final residual = 9.52041e-18, No Iterations 1
smoothSolver:  Solving for e, Initial residual = 0.000172786, Final residual = 5.98722e-17, No Iterations 7
smoothSolver:  Solving for p, Initial residual = 3.45538e-05, Final residual = 3.13208e-16, No Iterations 5
diagonal:  Solving for rho, Initial residual = 0, Final residual = 0, No Iterations 0
time step continuity errors : sum local = 5.74516e-16, global = 5.16396e-17, cumulative = 1.26275e-15
ExecutionTime = 0.13 s  ClockTime = 0 s

Courant Number mean: 0.00496701 max: 0.298534
Time = 0.00024

PIMPLE: iteration 1
diagonal:  Solving for rho, Initial residual = 0, Final residual = 0, No Iterations 0
smoothSolver:  Solving for Ux, Initial residual = 0.00819897, Final residual = 1.85072e-17, No Iterations 1
smoothSolver:  Solving for e, Initial residual = 0.001076, Final residual = 5.11248e-16, No Iterations 7
smoothSolver:  Solving for p, Initial residual = 0.000301612, Final residual = 6.45959e-17, No Iterations 6
diagonal:  Solving for rho, Initial residual = 0, Final residual = 0, No Iterations 0
time step continuity errors : sum local = 1.42454e-16, global = -3.80867e-17, cumulative = 1.22466e-15
PIMPLE: iteration 2
smoothSolver:  Solving for Ux, Initial residual = 0.000340542, Final residual = 9.70544e-18, No Iterations 1
smoothSolver:  Solving for e, Initial residual = 0.000167786, Final residual = 9.20753e-17, No Iterations 7
smoothSolver:  Solving for p, Initial residual = 3.41883e-05, Final residual = 3.16638e-16, No Iterations 5
diagonal:  Solving for rho, Initial residual = 0, Final residual = 0, No Iterations 0
time step continuity errors : sum local = 5.77731e-16, global = 4.8375e-17, cumulative = 1.27304e-15
ExecutionTime = 0.13 s  ClockTime = 0 s

Courant Number mean: 0.00517954 max: 0.297526
Time = 0.00025

PIMPLE: iteration 1
diagonal:  Solving for rho, Initial residual = 0, Final residual = 0, No Iterations 0
smoothSolver:  Solving for Ux, Initial residual = 0.00787393, Final residual = 1.56322e-17, No Iterations 1
smoothSolver:  Solving for e, Initial residual = 0.00108327, Final residual = 4.63165e-16, No Iterations 7
smoothSolver:  Solving for p, Initial residual = 0.000300197, Final residual = 6.43724e-17, No Iterations 6
diagonal:  Solving for rho, Initial residual = 0, Final residual = 0, No Iterations 0
time step continuity errors : sum local = 1.4327e-16, global = -3.91007e-17, cumulative = 1.23393e-15
PIMPLE: iteration 2
smoothSolver:  Solving for Ux, Initial residual = 0.000315608, Final residual = 1.7685e-17, No Iterations 1
smoothSolver:  Solving for e, Initial residual = 0.000166416, Final residual = 6.59228e-17, No Iterations 7
smoothSolver:  Solving for p, Initial residual = 3.32554e-05, Final residual = 3.10557e-16, No Iterations 5
diagonal:  Solving for rho, Initial residual = 0, Final residual = 0, No Iterations 0
time step continuity errors : sum local = 5.67418e-16, global = 4.33545e-17, cumulative = 1.27729e-15
ExecutionTime = 0.13 s  ClockTime = 0 s

Courant Number mean: 0.0053922 max: 0.297862
Time = 0.00026

PIMPLE: iteration 1
diagonal:  Solving for rho, Initial residual = 0, Final residual = 0, No Iterations 0
smoothSolver:  Solving for Ux, Initial residual = 0.00754345, Final residual = 1.31164e-17, No Iterations 1
smoothSolver:  Solving for e, Initial residual = 0.0010841, Final residual = 5.22494e-16, No Iterations 7
smoothSolver:  Solving for p, Initial residual = 0.00030125, Final residual = 6.49184e-17, No Iterations 6
diagonal:  Solving for rho, Initial residual = 0, Final residual = 0, No Iterations 0
time step continuity errors : sum local = 1.38819e-16, global = -3.77652e-17, cumulative = 1.23952e-15
PIMPLE: iteration 2
smoothSolver:  Solving for Ux, Initial residual = 0.000301893, Final residual = 1.32642e-17, No Iterations 1
smoothSolver:  Solving for e, Initial residual = 0.000169381, Final residual = 9.58747e-17, No Iterations 7
smoothSolver:  Solving for p, Initial residual = 3.46216e-05, Final residual = 3.23204e-16, No Iterations 5
diagonal:  Solving for rho, Initial residual = 0, Final residual = 0, No Iterations 0
time step continuity errors : sum local = 5.90047e-16, global = 3.72458e-17, cumulative = 1.27677e-15
ExecutionTime = 0.14 s  ClockTime = 0 s

Courant Number mean: 0.00560495 max: 0.297316
Time = 0.00027

PIMPLE: iteration 1
diagonal:  Solving for rho, Initial residual = 0, Final residual = 0, No Iterations 0
smoothSolver:  Solving for Ux, Initial residual = 0.00727182, Final residual = 1.47559e-17, No Iterations 1
smoothSolver:  Solving for e, Initial residual = 0.00109005, Final residual = 4.84151e-16, No Iterations 7
smoothSolver:  Solving for p, Initial residual = 0.00030001, Final residual = 6.591e-17, No Iterations 6
diagonal:  Solving for rho, Initial residual = 0, Final residual = 0, No Iterations 0
time step continuity errors : sum local = 1.39932e-16, global = -3.13102e-17, cumulative = 1.24546e-15
PIMPLE: iteration 2
smoothSolver:  Solving for Ux, Initial residual = 0.000285948, Final residual = 1.63119e-17, No Iterations 1
smoothSolver:  Solving for e, Initial residual = 0.000158505, Final residual = 6.83214e-17, No Iterations 7
smoothSolver:  Solving for p, Initial residual = 3.25814e-05, Final residual = 3.03719e-16, No Iterations 5
diagonal:  Solving for rho, Initial residual = 0, Final residual = 0, No Iterations 0
time step continuity errors : sum local = 5.56363e-16, global = 3.71469e-17, cumulative = 1.28261e-15
ExecutionTime = 0.14 s  ClockTime = 0 s

Courant Number mean: 0.00581782 max: 0.297366
Time = 0.00028

PIMPLE: iteration 1
diagonal:  Solving for rho, Initial residual = 0, Final residual = 0, No Iterations 0
smoothSolver:  Solving for Ux, Initial residual = 0.00697464, Final residual = 1.53006e-17, No Iterations 1
smoothSolver:  Solving for e, Initial residual = 0.00108704, Final residual = 5.47503e-16, No Iterations 7
smoothSolver:  Solving for p, Initial residual = 0.000300197, Final residual = 6.56255e-17, No Iterations 6
diagonal:  Solving for rho, Initial residual = 0, Final residual = 0, No Iterations 0
time step continuity errors : sum local = 1.45001e-16, global = -3.57372e-17, cumulative = 1.24687e-15
PIMPLE: iteration 2
smoothSolver:  Solving for Ux, Initial residual = 0.000270131, Final residual = 1.46735e-17, No Iterations 1
smoothSolver:  Solving for e, Initial residual = 0.000166797, Final residual = 9.98838e-17, No Iterations 7
smoothSolver:  Solving for p, Initial residual = 3.42722e-05, Final residual = 3.23118e-16, No Iterations 5
diagonal:  Solving for rho, Initial residual = 0, Final residual = 0, No Iterations 0
time step continuity errors : sum local = 5.95191e-16, global = 3.44264e-17, cumulative = 1.2813e-15
ExecutionTime = 0.14 s  ClockTime = 0 s

Courant Number mean: 0.00603076 max: 0.297037
Time = 0.00029

PIMPLE: iteration 1
diagonal:  Solving for rho, Initial residual = 0, Final residual = 0, No Iterations 0
smoothSolver:  Solving for Ux, Initial residual = 0.00674051, Final residual = 1.35494e-17, No Iterations 1
smoothSolver:  Solving for e, Initial residual = 0.00108735, Final residual = 5.25283e-16, No Iterations 7
smoothSolver:  Solving for p, Initial residual = 0.000299742, Final residual = 6.77209e-17, No Iterations 6
diagonal:  Solving for rho, Initial residual = 0, Final residual = 0, No Iterations 0
time step continuity errors : sum local = 1.38918e-16, global = -4.07824e-17, cumulative = 1.24051e-15
PIMPLE: iteration 2
smoothSolver:  Solving for Ux, Initial residual = 0.000259463, Final residual = 1.64021e-17, No Iterations 1
smoothSolver:  Solving for e, Initial residual = 0.000153512, Final residual = 7.42723e-17, No Iterations 7
smoothSolver:  Solving for p, Initial residual = 3.13544e-05, Final residual = 2.95655e-16, No Iterations 5
diagonal:  Solving for rho, Initial residual = 0, Final residual = 0, No Iterations 0
time step continuity errors : sum local = 5.44541e-16, global = 2.92328e-17, cumulative = 1.26975e-15
ExecutionTime = 0.15 s  ClockTime = 0 s

Courant Number mean: 0.00624377 max: 0.296839
Time = 0.0003

PIMPLE: iteration 1
diagonal:  Solving for rho, Initial residual = 0, Final residual = 0, No Iterations 0
smoothSolver:  Solving for Ux, Initial residual = 0.00647978, Final residual = 1.85519e-17, No Iterations 1
smoothSolver:  Solving for e, Initial residual = 0.0010846, Final residual = 5.55391e-16, No Iterations 7
smoothSolver:  Solving for p, Initial residual = 0.000299385, Final residual = 6.73976e-17, No Iterations 6
diagonal:  Solving for rho, Initial residual = 0, Final residual = 0, No Iterations 0
time step continuity errors : sum local = 1.44111e-16, global = -3.04941e-17, cumulative = 1.23925e-15
PIMPLE: iteration 2
smoothSolver:  Solving for Ux, Initial residual = 0.000242715, Final residual = 1.30299e-17, No Iterations 1
smoothSolver:  Solving for e, Initial residual = 0.000165097, Final residual = 9.62877e-17, No Iterations 7
smoothSolver:  Solving for p, Initial residual = 3.36132e-05, Final residual = 3.21581e-16, No Iterations 5
diagonal:  Solving for rho, Initial residual = 0, Final residual = 0, No Iterations 0
time step continuity errors : sum local = 5.83914e-16, global = 2.61661e-17, cumulative = 1.26542e-15
ExecutionTime = 0.15 s  ClockTime = 0 s

Courant Number mean: 0.00645686 max: 0.296719
Time = 0.00031

PIMPLE: iteration 1
diagonal:  Solving for rho, Initial residual = 0, Final residual = 0, No Iterations 0
smoothSolver:  Solving for Ux, Initial residual = 0.00628951, Final residual = 1.9162e-17, No Iterations 1
smoothSolver:  Solving for e, Initial residual = 0.0010914, Final residual = 5.31176e-16, No Iterations 7
smoothSolver:  Solving for p, Initial residual = 0.000299713, Final residual = 6.62138e-17, No Iterations 6
diagonal:  Solving for rho, Initial residual = 0, Final residual = 0, No Iterations 0
time step continuity errors : sum local = 1.35727e-16, global = -2.97769e-17, cumulative = 1.23564e-15
PIMPLE: iteration 2
smoothSolver:  Solving for Ux, Initial residual = 0.000238053, Final residual = 1.06248e-17, No Iterations 1
smoothSolver:  Solving for e, Initial residual = 0.000144416, Final residual = 7.00137e-17, No Iterations 7
smoothSolver:  Solving for p, Initial residual = 3.04073e-05, Final residual = 2.93938e-16, No Iterations 5
diagonal:  Solving for rho, Initial residual = 0, Final residual = 0, No Iterations 0
time step continuity errors : sum local = 5.3267e-16, global = 3.32393e-17, cumulative = 1.26888e-15
ExecutionTime = 0.15 s  ClockTime = 0 s

Courant Number mean: 0.00667005 max: 0.296285
Time = 0.00032

PIMPLE: iteration 1
diagonal:  Solving for rho, Initial residual = 0, Final residual = 0, No Iterations 0
smoothSolver:  Solving for Ux, Initial residual = 0.00605225, Final residual = 1.97974e-17, No Iterations 1
smoothSolver:  Solving for e, Initial residual = 0.00109062, Final residual = 5.77317e-16, No Iterations 7
smoothSolver:  Solving for p, Initial residual = 0.000299048, Final residual = 6.62985e-17, No Iterations 6
diagonal:  Solving for rho, Initial residual = 0, Final residual = 0, No Iterations 0
time step continuity errors : sum local = 1.3642e-16, global = -2.38413e-17, cumulative = 1.24504e-15
PIMPLE: iteration 2
smoothSolver:  Solving for Ux, Initial residual = 0.000220346, Final residual = 1.51402e-17, No Iterations 1
smoothSolver:  Solving for e, Initial residual = 0.000163532, Final residual = 8.94516e-17, No Iterations 7
smoothSolver:  Solving for p, Initial residual = 3.2971e-05, Final residual = 3.17838e-16, No Iterations 5
diagonal:  Solving for rho, Initial residual = 0, Final residual = 0, No Iterations 0
time step continuity errors : sum local = 5.76964e-16, global = 2.89607e-17, cumulative = 1.274e-15
ExecutionTime = 0.16 s  ClockTime = 0 s

Courant Number mean: 0.0068833 max: 0.29651
Time = 0.00033

PIMPLE: iteration 1
diagonal:  Solving for rho, Initial residual = 0, Final residual = 0, No Iterations 0
smoothSolver:  Solving for Ux, Initial residual = 0.00588533, Final residual = 1.85359e-17, No Iterations 1
smoothSolver:  Solving for e, Initial residual = 0.00109426, Final residual = 5.68051e-16, No Iterations 7
smoothSolver:  Solving for p, Initial residual = 0.000299622, Final residual = 6.59217e-17, No Iterations 6
diagonal:  Solving for rho, Initial residual = 0, Final residual = 0, No Iterations 0
time step continuity errors : sum local = 1.40105e-16, global = -3.24232e-17, cumulative = 1.24158e-15
PIMPLE: iteration 2
smoothSolver:  Solving for Ux, Initial residual = 0.000219716, Final residual = 1.65608e-17, No Iterations 1
smoothSolver:  Solving for e, Initial residual = 0.000141531, Final residual = 7.48685e-17, No Iterations 7
smoothSolver:  Solving for p, Initial residual = 3.11253e-05, Final residual = 2.98666e-16, No Iterations 5
diagonal:  Solving for rho, Initial residual = 0, Final residual = 0, No Iterations 0
time step continuity errors : sum local = 5.47509e-16, global = 2.97769e-17, cumulative = 1.27135e-15
ExecutionTime = 0.16 s  ClockTime = 0 s

Courant Number mean: 0.00709662 max: 0.295824
Time = 0.00034

PIMPLE: iteration 1
diagonal:  Solving for rho, Initial residual = 0, Final residual = 0, No Iterations 0
smoothSolver:  Solving for Ux, Initial residual = 0.0056874, Final residual = 1.73398e-17, No Iterations 1
smoothSolver:  Solving for e, Initial residual = 0.00108922, Final residual = 5.87467e-16, No Iterations 7
smoothSolver:  Solving for p, Initial residual = 0.000298367, Final residual = 6.68937e-17, No Iterations 6
diagonal:  Solving for rho, Initial residual = 0, Final residual = 0, No Iterations 0
time step continuity errors : sum local = 1.43443e-16, global = -3.08156e-17, cumulative = 1.24054e-15
PIMPLE: iteration 2
smoothSolver:  Solving for Ux, Initial residual = 0.000204152, Final residual = 1.58695e-17, No Iterations 1
smoothSolver:  Solving for e, Initial residual = 0.000159946, Final residual = 8.95065e-17, No Iterations 7
smoothSolver:  Solving for p, Initial residual = 3.22334e-05, Final residual = 3.15165e-16, No Iterations 5
diagonal:  Solving for rho, Initial residual = 0, Final residual = 0, No Iterations 0
time step continuity errors : sum local = 5.72834e-16, global = 2.85898e-17, cumulative = 1.26913e-15
ExecutionTime = 0.17 s  ClockTime = 0 s

Courant Number mean: 0.00731001 max: 0.29638
Time = 0.00035

PIMPLE: iteration 1
diagonal:  Solving for rho, Initial residual = 0, Final residual = 0, No Iterations 0
smoothSolver:  Solving for Ux, Initial residual = 0.00553632, Final residual = 1.16459e-17, No Iterations 1
smoothSolver:  Solving for e, Initial residual = 0.00109028, Final residual = 5.65824e-16, No Iterations 7
smoothSolver:  Solving for p, Initial residual = 0.000299228, Final residual = 6.6973e-17, No Iterations 6
diagonal:  Solving for rho, Initial residual = 0, Final residual = 0, No Iterations 0
time step continuity errors : sum local = 1.42726e-16, global = -2.96532e-17, cumulative = 1.23947e-15
PIMPLE: iteration 2
smoothSolver:  Solving for Ux, Initial residual = 0.00020339, Final residual = 1.7982e-17, No Iterations 1
smoothSolver:  Solving for e, Initial residual = 0.00013704, Final residual = 7.28033e-17, No Iterations 7
smoothSolver:  Solving for p, Initial residual = 3.07755e-05, Final residual = 3.02832e-16, No Iterations 5
diagonal:  Solving for rho, Initial residual = 0, Final residual = 0, No Iterations 0
time step continuity errors : sum local = 5.58514e-16, global = 3.42038e-17, cumulative = 1.27368e-15
ExecutionTime = 0.17 s  ClockTime = 0 s

Courant Number mean: 0.00752346 max: 0.295467
Time = 0.00036

PIMPLE: iteration 1
diagonal:  Solving for rho, Initial residual = 0, Final residual = 0, No Iterations 0
smoothSolver:  Solving for Ux, Initial residual = 0.00537253, Final residual = 1.17516e-17, No Iterations 1
smoothSolver:  Solving for e, Initial residual = 0.00108527, Final residual = 6.02643e-16, No Iterations 7
smoothSolver:  Solving for p, Initial residual = 0.000298058, Final residual = 6.36631e-17, No Iterations 6
diagonal:  Solving for rho, Initial residual = 0, Final residual = 0, No Iterations 0
time step continuity errors : sum local = 1.44457e-16, global = -3.1335e-17, cumulative = 1.24234e-15
PIMPLE: iteration 2
smoothSolver:  Solving for Ux, Initial residual = 0.000192089, Final residual = 1.38625e-17, No Iterations 1
smoothSolver:  Solving for e, Initial residual = 0.00015197, Final residual = 8.58518e-17, No Iterations 7
smoothSolver:  Solving for p, Initial residual = 3.10034e-05, Final residual = 3.08833e-16, No Iterations 5
diagonal:  Solving for rho, Initial residual = 0, Final residual = 0, No Iterations 0
time step continuity errors : sum local = 5.61655e-16, global = 3.00736e-17, cumulative = 1.27242e-15
ExecutionTime = 0.18 s  ClockTime = 0 s

Courant Number mean: 0.00773696 max: 0.296125
Time = 0.00037

PIMPLE: iteration 1
diagonal:  Solving for rho, Initial residual = 0, Final residual = 0, No Iterations 0
smoothSolver:  Solving for Ux, Initial residual = 0.00523192, Final residual = 1.56612e-17, No Iterations 1
smoothSolver:  Solving for e, Initial residual = 0.00108967, Final residual = 6.00637e-16, No Iterations 7
smoothSolver:  Solving for p, Initial residual = 0.000298727, Final residual = 6.60152e-17, No Iterations 6
diagonal:  Solving for rho, Initial residual = 0, Final residual = 0, No Iterations 0
time step continuity errors : sum local = 1.47796e-16, global = -4.32309e-17, cumulative = 1.22919e-15
PIMPLE: iteration 2
smoothSolver:  Solving for Ux, Initial residual = 0.000188783, Final residual = 1.9349e-17, No Iterations 1
smoothSolver:  Solving for e, Initial residual = 0.000143327, Final residual = 7.64274e-17, No Iterations 7
smoothSolver:  Solving for p, Initial residual = 3.12873e-05, Final residual = 3.09838e-16, No Iterations 5
diagonal:  Solving for rho, Initial residual = 0, Final residual = 0, No Iterations 0
time step continuity errors : sum local = 5.63634e-16, global = 2.68585e-17, cumulative = 1.25604e-15
ExecutionTime = 0.18 s  ClockTime = 0 s

Courant Number mean: 0.00795051 max: 0.29533
Time = 0.00038

PIMPLE: iteration 1
diagonal:  Solving for rho, Initial residual = 0, Final residual = 0, No Iterations 0
smoothSolver:  Solving for Ux, Initial residual = 0.00509584, Final residual = 1.46817e-17, No Iterations 1
smoothSolver:  Solving for e, Initial residual = 0.00108558, Final residual = 6.13495e-16, No Iterations 7
smoothSolver:  Solving for p, Initial residual = 0.000298035, Final residual = 6.46095e-17, No Iterations 6
diagonal:  Solving for rho, Initial residual = 0, Final residual = 0, No Iterations 0
time step continuity errors : sum local = 1.40649e-16, global = -3.00984e-17, cumulative = 1.22595e-15
PIMPLE: iteration 2
smoothSolver:  Solving for Ux, Initial residual = 0.000180997, Final residual = 1.61103e-17, No Iterations 1
smoothSolver:  Solving for e, Initial residual = 0.000145933, Final residual = 7.86578e-17, No Iterations 7
smoothSolver:  Solving for p, Initial residual = 3.00134e-05, Final residual = 2.98218e-16, No Iterations 5
diagonal:  Solving for rho, Initial residual = 0, Final residual = 0, No Iterations 0
time step continuity errors : sum local = 5.43502e-16, global = 3.10135e-17, cumulative = 1.25696e-15
ExecutionTime = 0.18 s  ClockTime = 0 s

Courant Number mean: 0.00816412 max: 0.295788
Time = 0.00039

PIMPLE: iteration 1
diagonal:  Solving for rho, Initial residual = 0, Final residual = 0, No Iterations 0
smoothSolver:  Solving for Ux, Initial residual = 0.00496478, Final residual = 1.71367e-17, No Iterations 1
smoothSolver:  Solving for e, Initial residual = 0.00108957, Final residual = 5.94852e-16, No Iterations 7
smoothSolver:  Solving for p, Initial residual = 0.0002986, Final residual = 6.28863e-17, No Iterations 6
diagonal:  Solving for rho, Initial residual = 0, Final residual = 0, No Iterations 0
time step continuity errors : sum local = 1.3872e-16, global = -2.89607e-17, cumulative = 1.228e-15
PIMPLE: iteration 2
smoothSolver:  Solving for Ux, Initial residual = 0.000175301, Final residual = 1.54933e-17, No Iterations 1
smoothSolver:  Solving for e, Initial residual = 0.000149476, Final residual = 7.39547e-17, No Iterations 7
smoothSolver:  Solving for p, Initial residual = 3.16228e-05, Final residual = 3.1015e-16, No Iterations 5
diagonal:  Solving for rho, Initial residual = 0, Final residual = 0, No Iterations 0
time step continuity errors : sum local = 5.61878e-16, global = 2.56962e-17, cumulative = 1.2537e-15
ExecutionTime = 0.19 s  ClockTime = 0 s

Courant Number mean: 0.00837779 max: 0.29545
Time = 0.0004

PIMPLE: iteration 1
diagonal:  Solving for rho, Initial residual = 0, Final residual = 0, No Iterations 0
smoothSolver:  Solving for Ux, Initial residual = 0.00484638, Final residual = 1.46924e-17, No Iterations 1
smoothSolver:  Solving for e, Initial residual = 0.00108417, Final residual = 6.23611e-16, No Iterations 7
smoothSolver:  Solving for p, Initial residual = 0.000298193, Final residual = 6.53101e-17, No Iterations 6
diagonal:  Solving for rho, Initial residual = 0, Final residual = 0, No Iterations 0
time step continuity errors : sum local = 1.38324e-16, global = -2.76252e-17, cumulative = 1.22607e-15
PIMPLE: iteration 2
smoothSolver:  Solving for Ux, Initial residual = 0.000170821, Final residual = 1.44719e-17, No Iterations 1
smoothSolver:  Solving for e, Initial residual = 0.000139874, Final residual = 7.22283e-17, No Iterations 7
smoothSolver:  Solving for p, Initial residual = 2.92119e-05, Final residual = 2.88369e-16, No Iterations 5
diagonal:  Solving for rho, Initial residual = 0, Final residual = 0, No Iterations 0
time step continuity errors : sum local = 5.276e-16, global = 3.57372e-17, cumulative = 1.26181e-15
ExecutionTime = 0.19 s  ClockTime = 0 s

Courant Number mean: 0.00859151 max: 0.295584
Time = 0.00041

PIMPLE: iteration 1
diagonal:  Solving for rho, Initial residual = 0, Final residual = 0, No Iterations 0
smoothSolver:  Solving for Ux, Initial residual = 0.00471616, Final residual = 1.72451e-17, No Iterations 1
smoothSolver:  Solving for e, Initial residual = 0.0010855, Final residual = 6.21332e-16, No Iterations 7
smoothSolver:  Solving for p, Initial residual = 0.000298031, Final residual = 6.35751e-17, No Iterations 6
diagonal:  Solving for rho, Initial residual = 0, Final residual = 0, No Iterations 0
time step continuity errors : sum local = 1.3867e-16, global = -4.16728e-17, cumulative = 1.22013e-15
PIMPLE: iteration 2
smoothSolver:  Solving for Ux, Initial residual = 0.000162998, Final residual = 1.26136e-17, No Iterations 1
smoothSolver:  Solving for e, Initial residual = 0.000151553, Final residual = 7.4866e-17, No Iterations 7
smoothSolver:  Solving for p, Initial residual = 3.14053e-05, Final residual = 3.09485e-16, No Iterations 5
diagonal:  Solving for rho, Initial residual = 0, Final residual = 0, No Iterations 0
time step continuity errors : sum local = 5.667e-16, global = 2.81446e-17, cumulative = 1.24828e-15
ExecutionTime = 0.19 s  ClockTime = 0 s

Courant Number mean: 0.00880525 max: 0.295464
Time = 0.00042

PIMPLE: iteration 1
diagonal:  Solving for rho, Initial residual = 0, Final residual = 0, No Iterations 0
smoothSolver:  Solving for Ux, Initial residual = 0.00462016, Final residual = 1.70636e-17, No Iterations 1
smoothSolver:  Solving for e, Initial residual = 0.00108418, Final residual = 6.30212e-16, No Iterations 7
smoothSolver:  Solving for p, Initial residual = 0.000298284, Final residual = 6.71316e-17, No Iterations 6
diagonal:  Solving for rho, Initial residual = 0, Final residual = 0, No Iterations 0
time step continuity errors : sum local = 1.3642e-16, global = -2.29015e-17, cumulative = 1.22538e-15
PIMPLE: iteration 2
smoothSolver:  Solving for Ux, Initial residual = 0.000161129, Final residual = 1.78738e-17, No Iterations 1
smoothSolver:  Solving for e, Initial residual = 0.000133246, Final residual = 6.67494e-17, No Iterations 7
smoothSolver:  Solving for p, Initial residual = 2.8271e-05, Final residual = 2.83762e-16, No Iterations 5
diagonal:  Solving for rho, Initial residual = 0, Final residual = 0, No Iterations 0
time step continuity errors : sum local = 5.14838e-16, global = 2.2481e-17, cumulative = 1.24786e-15
ExecutionTime = 0.2 s  ClockTime = 0 s

Courant Number mean: 0.00901904 max: 0.295329
Time = 0.00043

PIMPLE: iteration 1
diagonal:  Solving for rho, Initial residual = 0, Final residual = 0, No Iterations 0
smoothSolver:  Solving for Ux, Initial residual = 0.00449819, Final residual = 1.64157e-17, No Iterations 1
smoothSolver:  Solving for e, Initial residual = 0.00108671, Final residual = 6.1398e-16, No Iterations 7
smoothSolver:  Solving for p, Initial residual = 0.000297935, Final residual = 6.29224e-17, No Iterations 6
diagonal:  Solving for rho, Initial residual = 0, Final residual = 0, No Iterations 0
time step continuity errors : sum local = 1.26997e-16, global = -2.98016e-17, cumulative = 1.21806e-15
PIMPLE: iteration 2
smoothSolver:  Solving for Ux, Initial residual = 0.000151541, Final residual = 1.52314e-17, No Iterations 1
smoothSolver:  Solving for e, Initial residual = 0.000149922, Final residual = 6.99324e-17, No Iterations 7
smoothSolver:  Solving for p, Initial residual = 3.10018e-05, Final residual = 3.06008e-16, No Iterations 5
diagonal:  Solving for rho, Initial residual = 0, Final residual = 0, No Iterations 0
time step continuity errors : sum local = 5.58316e-16, global = 2.12445e-17, cumulative = 1.2393e-15
ExecutionTime = 0.2 s  ClockTime = 0 s

Courant Number mean: 0.00923285 max: 0.295338
Time = 0.00044

PIMPLE: iteration 1
diagonal:  Solving for rho, Initial residual = 0, Final residual = 0, No Iterations 0
smoothSolver:  Solving for Ux, Initial residual = 0.00441118, Final residual = 1.18133e-17, No Iterations 1
smoothSolver:  Solving for e, Initial residual = 0.00108518, Final residual = 6.37272e-16, No Iterations 7
smoothSolver:  Solving for p, Initial residual = 0.00029852, Final residual = 6.20691e-17, No Iterations 6
diagonal:  Solving for rho, Initial residual = 0, Final residual = 0, No Iterations 0
time step continuity errors : sum local = 1.32289e-16, global = -3.64297e-17, cumulative = 1.20287e-15
PIMPLE: iteration 2
smoothSolver:  Solving for Ux, Initial residual = 0.000152191, Final residual = 1.25837e-17, No Iterations 1
smoothSolver:  Solving for e, Initial residual = 0.000127626, Final residual = 6.56491e-17, No Iterations 7
smoothSolver:  Solving for p, Initial residual = 2.81711e-05, Final residual = 2.82399e-16, No Iterations 5
diagonal:  Solving for rho, Initial residual = 0, Final residual = 0, No Iterations 0
time step continuity errors : sum local = 5.09719e-16, global = 2.33961e-17, cumulative = 1.22627e-15
ExecutionTime = 0.2 s  ClockTime = 0 s

Courant Number mean: 0.00944671 max: 0.29495
Time = 0.00045

PIMPLE: iteration 1
diagonal:  Solving for rho, Initial residual = 0, Final residual = 0, No Iterations 0
smoothSolver:  Solving for Ux, Initial residual = 0.00429185, Final residual = 1.49689e-17, No Iterations 1
smoothSolver:  Solving for e, Initial residual = 0.00108416, Final residual = 6.33473e-16, No Iterations 7
smoothSolver:  Solving for p, Initial residual = 0.000297726, Final residual = 6.22206e-17, No Iterations 6
diagonal:  Solving for rho, Initial residual = 0, Final residual = 0, No Iterations 0
time step continuity errors : sum local = 1.35801e-16, global = -3.03457e-17, cumulative = 1.19592e-15
PIMPLE: iteration 2
smoothSolver:  Solving for Ux, Initial residual = 0.000141448, Final residual = 1.49854e-17, No Iterations 1
smoothSolver:  Solving for e, Initial residual = 0.000148336, Final residual = 1.05532e-16, No Iterations 7
smoothSolver:  Solving for p, Initial residual = 3.0656e-05, Final residual = 3.04934e-16, No Iterations 5
diagonal:  Solving for rho, Initial residual = 0, Final residual = 0, No Iterations 0
time step continuity errors : sum local = 5.55497e-16, global = 1.93649e-17, cumulative = 1.21529e-15
ExecutionTime = 0.21 s  ClockTime = 0 s

Courant Number mean: 0.0096606 max: 0.295263
Time = 0.00046

PIMPLE: iteration 1
diagonal:  Solving for rho, Initial residual = 0, Final residual = 0, No Iterations 0
smoothSolver:  Solving for Ux, Initial residual = 0.00422141, Final residual = 1.72528e-17, No Iterations 1
smoothSolver:  Solving for e, Initial residual = 0.00108496, Final residual = 6.42217e-16, No Iterations 7
smoothSolver:  Solving for p, Initial residual = 0.000298976, Final residual = 6.22816e-17, No Iterations 6
diagonal:  Solving for rho, Initial residual = 0, Final residual = 0, No Iterations 0
time step continuity errors : sum local = 1.38893e-16, global = -3.19038e-17, cumulative = 1.18338e-15
PIMPLE: iteration 2
smoothSolver:  Solving for Ux, Initial residual = 0.00014418, Final residual = 1.41936e-17, No Iterations 1
smoothSolver:  Solving for e, Initial residual = 0.00012373, Final residual = 6.62417e-17, No Iterations 7
smoothSolver:  Solving for p, Initial residual = 2.86928e-05, Final residual = 2.87752e-16, No Iterations 5
diagonal:  Solving for rho, Initial residual = 0, Final residual = 0, No Iterations 0
time step continuity errors : sum local = 5.17484e-16, global = 1.99831e-17, cumulative = 1.20337e-15
ExecutionTime = 0.21 s  ClockTime = 0 s

Courant Number mean: 0.00987454 max: 0.29474
Time = 0.00047

PIMPLE: iteration 1
diagonal:  Solving for rho, Initial residual = 0, Final residual = 0, No Iterations 0
smoothSolver:  Solving for Ux, Initial residual = 0.00411992, Final residual = 1.79754e-17, No Iterations 1
smoothSolver:  Solving for e, Initial residual = 0.00108299, Final residual = 6.27817e-16, No Iterations 7
smoothSolver:  Solving for p, Initial residual = 0.000297716, Final residual = 6.11243e-17, No Iterations 6
diagonal:  Solving for rho, Initial residual = 0, Final residual = 0, No Iterations 0
time step continuity errors : sum local = 1.38819e-16, global = -3.43028e-17, cumulative = 1.16906e-15
PIMPLE: iteration 2
smoothSolver:  Solving for Ux, Initial residual = 0.000136172, Final residual = 1.49945e-17, No Iterations 1
smoothSolver:  Solving for e, Initial residual = 0.000146278, Final residual = 6.75243e-17, No Iterations 7
smoothSolver:  Solving for p, Initial residual = 3.01445e-05, Final residual = 2.98624e-16, No Iterations 5
diagonal:  Solving for rho, Initial residual = 0, Final residual = 0, No Iterations 0
time step continuity errors : sum local = 5.42562e-16, global = 1.83509e-17, cumulative = 1.18741e-15
ExecutionTime = 0.21 s  ClockTime = 0 s

Courant Number mean: 0.0100885 max: 0.295323
Time = 0.00048

PIMPLE: iteration 1
diagonal:  Solving for rho, Initial residual = 0, Final residual = 0, No Iterations 0
smoothSolver:  Solving for Ux, Initial residual = 0.00404403, Final residual = 1.26945e-17, No Iterations 1
smoothSolver:  Solving for e, Initial residual = 0.00108295, Final residual = 6.45391e-16, No Iterations 7
smoothSolver:  Solving for p, Initial residual = 0.000298953, Final residual = 6.09248e-17, No Iterations 6
diagonal:  Solving for rho, Initial residual = 0, Final residual = 0, No Iterations 0
time step continuity errors : sum local = 1.35455e-16, global = -3.28683e-17, cumulative = 1.15455e-15
PIMPLE: iteration 2
smoothSolver:  Solving for Ux, Initial residual = 0.000136655, Final residual = 1.70297e-17, No Iterations 1
smoothSolver:  Solving for e, Initial residual = 0.000124409, Final residual = 7.18133e-17, No Iterations 7
smoothSolver:  Solving for p, Initial residual = 2.92315e-05, Final residual = 2.89439e-16, No Iterations 5
diagonal:  Solving for rho, Initial residual = 0, Final residual = 0, No Iterations 0
time step continuity errors : sum local = 5.26808e-16, global = 1.7782e-17, cumulative = 1.17233e-15
ExecutionTime = 0.22 s  ClockTime = 0 s

Courant Number mean: 0.0103025 max: 0.29449
Time = 0.00049

PIMPLE: iteration 1
diagonal:  Solving for rho, Initial residual = 0, Final residual = 0, No Iterations 0
smoothSolver:  Solving for Ux, Initial residual = 0.00395777, Final residual = 1.32332e-17, No Iterations 1
smoothSolver:  Solving for e, Initial residual = 0.00108102, Final residual = 6.62858e-16, No Iterations 7
smoothSolver:  Solving for p, Initial residual = 0.000298285, Final residual = 6.05322e-17, No Iterations 6
diagonal:  Solving for rho, Initial residual = 0, Final residual = 0, No Iterations 0
time step continuity errors : sum local = 1.33031e-16, global = -3.01973e-17, cumulative = 1.14213e-15
PIMPLE: iteration 2
smoothSolver:  Solving for Ux, Initial residual = 0.000131048, Final residual = 1.71356e-17, No Iterations 1
smoothSolver:  Solving for e, Initial residual = 0.00013878, Final residual = 6.55343e-17, No Iterations 7
smoothSolver:  Solving for p, Initial residual = 2.9098e-05, Final residual = 2.92417e-16, No Iterations 5
diagonal:  Solving for rho, Initial residual = 0, Final residual = 0, No Iterations 0
time step continuity errors : sum local = 5.33016e-16, global = 2.70069e-17, cumulative = 1.16914e-15
ExecutionTime = 0.22 s  ClockTime = 0 s

Courant Number mean: 0.0105165 max: 0.295273
Time = 0.0005

PIMPLE: iteration 1
diagonal:  Solving for rho, Initial residual = 0, Final residual = 0, No Iterations 0
smoothSolver:  Solving for Ux, Initial residual = 0.00388495, Final residual = 1.43963e-17, No Iterations 1
smoothSolver:  Solving for e, Initial residual = 0.00108307, Final residual = 6.46401e-16, No Iterations 7
smoothSolver:  Solving for p, Initial residual = 0.000299143, Final residual = 6.1287e-17, No Iterations 6
diagonal:  Solving for rho, Initial residual = 0, Final residual = 0, No Iterations 0
time step continuity errors : sum local = 1.34911e-16, global = -3.0593e-17, cumulative = 1.13854e-15
PIMPLE: iteration 2
smoothSolver:  Solving for Ux, Initial residual = 0.000129275, Final residual = 1.29243e-17, No Iterations 1
smoothSolver:  Solving for e, Initial residual = 0.000134028, Final residual = 6.57557e-17, No Iterations 7
smoothSolver:  Solving for p, Initial residual = 2.99717e-05, Final residual = 2.96473e-16, No Iterations 5
diagonal:  Solving for rho, Initial residual = 0, Final residual = 0, No Iterations 0
time step continuity errors : sum local = 5.39916e-16, global = 1.93649e-17, cumulative = 1.15791e-15
ExecutionTime = 0.22 s  ClockTime = 0 s

Courant Number mean: 0.0107306 max: 0.294544
Time = 0.00051

PIMPLE: iteration 1
diagonal:  Solving for rho, Initial residual = 0, Final residual = 0, No Iterations 0
smoothSolver:  Solving for Ux, Initial residual = 0.00381014, Final residual = 1.39978e-17, No Iterations 1
smoothSolver:  Solving for e, Initial residual = 0.00107904, Final residual = 6.55358e-16, No Iterations 7
smoothSolver:  Solving for p, Initial residual = 0.000298691, Final residual = 6.11543e-17, No Iterations 6
diagonal:  Solving for rho, Initial residual = 0, Final residual = 0, No Iterations 0
time step continuity errors : sum local = 1.39932e-16, global = -3.74437e-17, cumulative = 1.12047e-15
PIMPLE: iteration 2
smoothSolver:  Solving for Ux, Initial residual = 0.000125893, Final residual = 1.66831e-17, No Iterations 1
smoothSolver:  Solving for e, Initial residual = 0.00013413, Final residual = 6.30788e-17, No Iterations 7
smoothSolver:  Solving for p, Initial residual = 2.86253e-05, Final residual = 2.83323e-16, No Iterations 5
diagonal:  Solving for rho, Initial residual = 0, Final residual = 0, No Iterations 0
time step continuity errors : sum local = 5.14789e-16, global = 2.17886e-17, cumulative = 1.14225e-15
ExecutionTime = 0.23 s  ClockTime = 0 s

Courant Number mean: 0.0109447 max: 0.295021
Time = 0.00052

PIMPLE: iteration 1
diagonal:  Solving for rho, Initial residual = 0, Final residual = 0, No Iterations 0
smoothSolver:  Solving for Ux, Initial residual = 0.0037338, Final residual = 1.68643e-17, No Iterations 1
smoothSolver:  Solving for e, Initial residual = 0.00108249, Final residual = 6.57223e-16, No Iterations 7
smoothSolver:  Solving for p, Initial residual = 0.000299155, Final residual = 5.94633e-17, No Iterations 6
diagonal:  Solving for rho, Initial residual = 0, Final residual = 0, No Iterations 0
time step continuity errors : sum local = 1.34268e-16, global = -3.50942e-17, cumulative = 1.10716e-15
PIMPLE: iteration 2
smoothSolver:  Solving for Ux, Initial residual = 0.000122346, Final residual = 1.8594e-17, No Iterations 1
smoothSolver:  Solving for e, Initial residual = 0.00014046, Final residual = 6.66007e-17, No Iterations 7
smoothSolver:  Solving for p, Initial residual = 3.04209e-05, Final residual = 2.99552e-16, No Iterations 5
diagonal:  Solving for rho, Initial residual = 0, Final residual = 0, No Iterations 0
time step continuity errors : sum local = 5.44516e-16, global = 1.28852e-17, cumulative = 1.12005e-15
ExecutionTime = 0.23 s  ClockTime = 0 s

Courant Number mean: 0.0111588 max: 0.29476
Time = 0.00053

PIMPLE: iteration 1
diagonal:  Solving for rho, Initial residual = 0, Final residual = 0, No Iterations 0
smoothSolver:  Solving for Ux, Initial residual = 0.00367044, Final residual = 1.24855e-17, No Iterations 1
smoothSolver:  Solving for e, Initial residual = 0.00107952, Final residual = 6.68622e-16, No Iterations 7
smoothSolver:  Solving for p, Initial residual = 0.000299225, Final residual = 6.2455e-17, No Iterations 6
diagonal:  Solving for rho, Initial residual = 0, Final residual = 0, No Iterations 0
time step continuity errors : sum local = 1.38176e-16, global = -3.09393e-17, cumulative = 1.08911e-15
PIMPLE: iteration 2
smoothSolver:  Solving for Ux, Initial residual = 0.000120892, Final residual = 1.53834e-17, No Iterations 1
smoothSolver:  Solving for e, Initial residual = 0.00012847, Final residual = 6.51572e-17, No Iterations 7
smoothSolver:  Solving for p, Initial residual = 2.79716e-05, Final residual = 2.77159e-16, No Iterations 5
diagonal:  Solving for rho, Initial residual = 0, Final residual = 0, No Iterations 0
time step continuity errors : sum local = 5.05687e-16, global = 1.87713e-17, cumulative = 1.10788e-15
ExecutionTime = 0.23 s  ClockTime = 0 s

Courant Number mean: 0.0113729 max: 0.294932
Time = 0.00054

PIMPLE: iteration 1
diagonal:  Solving for rho, Initial residual = 0, Final residual = 0, No Iterations 0
smoothSolver:  Solving for Ux, Initial residual = 0.00359692, Final residual = 1.647e-17, No Iterations 1
smoothSolver:  Solving for e, Initial residual = 0.00108089, Final residual = 6.51932e-16, No Iterations 7
smoothSolver:  Solving for p, Initial residual = 0.000299244, Final residual = 6.07978e-17, No Iterations 6
diagonal:  Solving for rho, Initial residual = 0, Final residual = 0, No Iterations 0
time step continuity errors : sum local = 1.40772e-16, global = -3.54651e-17, cumulative = 1.07241e-15
PIMPLE: iteration 2
smoothSolver:  Solving for Ux, Initial residual = 0.000115603, Final residual = 1.28862e-17, No Iterations 1
smoothSolver:  Solving for e, Initial residual = 0.000142865, Final residual = 6.54265e-17, No Iterations 7
smoothSolver:  Solving for p, Initial residual = 3.03912e-05, Final residual = 2.9993e-16, No Iterations 5
diagonal:  Solving for rho, Initial residual = 0, Final residual = 0, No Iterations 0
time step continuity errors : sum local = 5.5337e-16, global = 2.00573e-17, cumulative = 1.09247e-15
ExecutionTime = 0.24 s  ClockTime = 0 s

Courant Number mean: 0.0115871 max: 0.294858
Time = 0.00055

PIMPLE: iteration 1
diagonal:  Solving for rho, Initial residual = 0, Final residual = 0, No Iterations 0
smoothSolver:  Solving for Ux, Initial residual = 0.00354178, Final residual = 1.55071e-17, No Iterations 1
smoothSolver:  Solving for e, Initial residual = 0.00107922, Final residual = 6.60926e-16, No Iterations 7
smoothSolver:  Solving for p, Initial residual = 0.000299756, Final residual = 6.03152e-17, No Iterations 6
diagonal:  Solving for rho, Initial residual = 0, Final residual = 0, No Iterations 0
time step continuity errors : sum local = 1.39338e-16, global = -3.54651e-17, cumulative = 1.057e-15
PIMPLE: iteration 2
smoothSolver:  Solving for Ux, Initial residual = 0.000115819, Final residual = 1.41002e-17, No Iterations 1
smoothSolver:  Solving for e, Initial residual = 0.000123776, Final residual = 6.28004e-17, No Iterations 7
smoothSolver:  Solving for p, Initial residual = 2.73418e-05, Final residual = 2.69849e-16, No Iterations 5
diagonal:  Solving for rho, Initial residual = 0, Final residual = 0, No Iterations 0
time step continuity errors : sum local = 4.95399e-16, global = 2.39155e-17, cumulative = 1.08092e-15
ExecutionTime = 0.24 s  ClockTime = 0 s

Courant Number mean: 0.0118013 max: 0.29477
Time = 0.00056

PIMPLE: iteration 1
diagonal:  Solving for rho, Initial residual = 0, Final residual = 0, No Iterations 0
smoothSolver:  Solving for Ux, Initial residual = 0.00346678, Final residual = 1.47966e-17, No Iterations 1
smoothSolver:  Solving for e, Initial residual = 0.00108012, Final residual = 6.58631e-16, No Iterations 7
smoothSolver:  Solving for p, Initial residual = 0.000299145, Final residual = 6.12513e-17, No Iterations 6
diagonal:  Solving for rho, Initial residual = 0, Final residual = 0, No Iterations 0
time step continuity errors : sum local = 1.43913e-16, global = -3.88039e-17, cumulative = 1.04212e-15
PIMPLE: iteration 2
smoothSolver:  Solving for Ux, Initial residual = 0.000109216, Final residual = 1.59619e-17, No Iterations 1
smoothSolver:  Solving for e, Initial residual = 0.000141192, Final residual = 6.7006e-17, No Iterations 7
smoothSolver:  Solving for p, Initial residual = 3.0111e-05, Final residual = 2.973e-16, No Iterations 5
diagonal:  Solving for rho, Initial residual = 0, Final residual = 0, No Iterations 0
time step continuity errors : sum local = 5.45481e-16, global = 2.5622e-17, cumulative = 1.06774e-15
ExecutionTime = 0.24 s  ClockTime = 0 s

Courant Number mean: 0.0120155 max: 0.294791
Time = 0.00057

PIMPLE: iteration 1
diagonal:  Solving for rho, Initial residual = 0, Final residual = 0, No Iterations 0
smoothSolver:  Solving for Ux, Initial residual = 0.00342117, Final residual = 1.65692e-17, No Iterations 1
smoothSolver:  Solving for e, Initial residual = 0.0010799, Final residual = 6.69749e-16, No Iterations 7
smoothSolver:  Solving for p, Initial residual = 0.000299936, Final residual = 6.32908e-17, No Iterations 6
diagonal:  Solving for rho, Initial residual = 0, Final residual = 0, No Iterations 0
time step continuity errors : sum local = 1.382e-16, global = -4.28846e-17, cumulative = 1.02485e-15
PIMPLE: iteration 2
smoothSolver:  Solving for Ux, Initial residual = 0.000111161, Final residual = 1.48889e-17, No Iterations 1
smoothSolver:  Solving for e, Initial residual = 0.000120208, Final residual = 6.63331e-17, No Iterations 7
smoothSolver:  Solving for p, Initial residual = 2.76489e-05, Final residual = 2.74803e-16, No Iterations 5
diagonal:  Solving for rho, Initial residual = 0, Final residual = 0, No Iterations 0
time step continuity errors : sum local = 5.07048e-16, global = 2.01315e-17, cumulative = 1.04499e-15
ExecutionTime = 0.25 s  ClockTime = 0 s

Courant Number mean: 0.0122297 max: 0.294463
Time = 0.00058

PIMPLE: iteration 1
diagonal:  Solving for rho, Initial residual = 0, Final residual = 0, No Iterations 0
smoothSolver:  Solving for Ux, Initial residual = 0.00335054, Final residual = 1.3879e-17, No Iterations 1
smoothSolver:  Solving for e, Initial residual = 0.00107928, Final residual = 6.61347e-16, No Iterations 7
smoothSolver:  Solving for p, Initial residual = 0.000299048, Final residual = 6.18915e-17, No Iterations 6
diagonal:  Solving for rho, Initial residual = 0, Final residual = 0, No Iterations 0
time step continuity errors : sum local = 1.38868e-16, global = -4.28104e-17, cumulative = 1.00217e-15
PIMPLE: iteration 2
smoothSolver:  Solving for Ux, Initial residual = 0.000104314, Final residual = 1.81306e-17, No Iterations 1
smoothSolver:  Solving for e, Initial residual = 0.000140115, Final residual = 6.56814e-17, No Iterations 7
smoothSolver:  Solving for p, Initial residual = 2.979e-05, Final residual = 2.93042e-16, No Iterations 5
diagonal:  Solving for rho, Initial residual = 0, Final residual = 0, No Iterations 0
time step continuity errors : sum local = 5.38111e-16, global = 2.03789e-17, cumulative = 1.02255e-15
ExecutionTime = 0.25 s  ClockTime = 0 s

Courant Number mean: 0.012444 max: 0.29482
Time = 0.00059

PIMPLE: iteration 1
diagonal:  Solving for rho, Initial residual = 0, Final residual = 0, No Iterations 0
smoothSolver:  Solving for Ux, Initial residual = 0.00330781, Final residual = 1.52902e-17, No Iterations 1
smoothSolver:  Solving for e, Initial residual = 0.00107935, Final residual = 6.66536e-16, No Iterations 7
smoothSolver:  Solving for p, Initial residual = 0.000300175, Final residual = 6.04475e-17, No Iterations 6
diagonal:  Solving for rho, Initial residual = 0, Final residual = 0, No Iterations 0
time step continuity errors : sum local = 1.32858e-16, global = -3.65533e-17, cumulative = 9.86e-16
PIMPLE: iteration 2
smoothSolver:  Solving for Ux, Initial residual = 0.000106611, Final residual = 1.7806e-17, No Iterations 1
smoothSolver:  Solving for e, Initial residual = 0.000117232, Final residual = 6.00218e-17, No Iterations 7
smoothSolver:  Solving for p, Initial residual = 2.80876e-05, Final residual = 2.80152e-16, No Iterations 5
diagonal:  Solving for rho, Initial residual = 0, Final residual = 0, No Iterations 0
time step continuity errors : sum local = 5.10114e-16, global = 1.38002e-17, cumulative = 9.998e-16
ExecutionTime = 0.25 s  ClockTime = 0 s

Courant Number mean: 0.0126583 max: 0.294242
Time = 0.0006

PIMPLE: iteration 1
diagonal:  Solving for rho, Initial residual = 0, Final residual = 0, No Iterations 0
smoothSolver:  Solving for Ux, Initial residual = 0.00324561, Final residual = 1.79454e-17, No Iterations 1
smoothSolver:  Solving for e, Initial residual = 0.00107644, Final residual = 6.73524e-16, No Iterations 7
smoothSolver:  Solving for p, Initial residual = 0.000298873, Final residual = 6.17543e-17, No Iterations 6
diagonal:  Solving for rho, Initial residual = 0, Final residual = 0, No Iterations 0
time step continuity errors : sum local = 1.40525e-16, global = -3.74437e-17, cumulative = 9.62357e-16
PIMPLE: iteration 2
smoothSolver:  Solving for Ux, Initial residual = 0.000101677, Final residual = 1.77259e-17, No Iterations 1
smoothSolver:  Solving for e, Initial residual = 0.00013668, Final residual = 6.19425e-17, No Iterations 7
smoothSolver:  Solving for p, Initial residual = 2.90864e-05, Final residual = 2.9071e-16, No Iterations 5
diagonal:  Solving for rho, Initial residual = 0, Final residual = 0, No Iterations 0
time step continuity errors : sum local = 5.2619e-16, global = 1.72627e-17, cumulative = 9.79619e-16
ExecutionTime = 0.26 s  ClockTime = 0 s

Courant Number mean: 0.0128726 max: 0.294898
Time = 0.00061

PIMPLE: iteration 1
diagonal:  Solving for rho, Initial residual = 0, Final residual = 0, No Iterations 0
smoothSolver:  Solving for Ux, Initial residual = 0.00320182, Final residual = 1.78295e-17, No Iterations 1
smoothSolver:  Solving for e, Initial residual = 0.00107923, Final residual = 6.73645e-16, No Iterations 7
smoothSolver:  Solving for p, Initial residual = 0.00030026, Final residual = 6.28682e-17, No Iterations 6
diagonal:  Solving for rho, Initial residual = 0, Final residual = 0, No Iterations 0
time step continuity errors : sum local = 1.37409e-16, global = -3.47232e-17, cumulative = 9.44896e-16
PIMPLE: iteration 2
smoothSolver:  Solving for Ux, Initial residual = 0.000102131, Final residual = 1.49482e-17, No Iterations 1
smoothSolver:  Solving for e, Initial residual = 0.000120576, Final residual = 5.88249e-17, No Iterations 7
smoothSolver:  Solving for p, Initial residual = 2.86497e-05, Final residual = 2.84391e-16, No Iterations 5
diagonal:  Solving for rho, Initial residual = 0, Final residual = 0, No Iterations 0
time step continuity errors : sum local = 5.19784e-16, global = 1.38744e-17, cumulative = 9.58771e-16
ExecutionTime = 0.26 s  ClockTime = 0 s

Courant Number mean: 0.0130869 max: 0.294084
Time = 0.00062

PIMPLE: iteration 1
diagonal:  Solving for rho, Initial residual = 0, Final residual = 0, No Iterations 0
smoothSolver:  Solving for Ux, Initial residual = 0.003149, Final residual = 1.56888e-17, No Iterations 1
smoothSolver:  Solving for e, Initial residual = 0.00107654, Final residual = 6.69176e-16, No Iterations 7
smoothSolver:  Solving for p, Initial residual = 0.000299572, Final residual = 6.2941e-17, No Iterations 6
diagonal:  Solving for rho, Initial residual = 0, Final residual = 0, No Iterations 0
time step continuity errors : sum local = 1.39115e-16, global = -4.01889e-17, cumulative = 9.18582e-16
PIMPLE: iteration 2
smoothSolver:  Solving for Ux, Initial residual = 9.89488e-05, Final residual = 1.54855e-17, No Iterations 1
smoothSolver:  Solving for e, Initial residual = 0.000131159, Final residual = 5.71794e-17, No Iterations 7
smoothSolver:  Solving for p, Initial residual = 2.83929e-05, Final residual = 2.8354e-16, No Iterations 5
diagonal:  Solving for rho, Initial residual = 0, Final residual = 0, No Iterations 0
time step continuity errors : sum local = 5.21862e-16, global = 1.45669e-17, cumulative = 9.33149e-16
ExecutionTime = 0.26 s  ClockTime = 0 s

Courant Number mean: 0.0133013 max: 0.29485
Time = 0.00063

PIMPLE: iteration 1
diagonal:  Solving for rho, Initial residual = 0, Final residual = 0, No Iterations 0
smoothSolver:  Solving for Ux, Initial residual = 0.0031013, Final residual = 1.23638e-17, No Iterations 1
smoothSolver:  Solving for e, Initial residual = 0.00107972, Final residual = 6.66177e-16, No Iterations 7
smoothSolver:  Solving for p, Initial residual = 0.000300388, Final residual = 6.29841e-17, No Iterations 6
[...]
smoothSolver:  Solving for Ux, Initial residual = 0.000340326, Final residual = 4.34853e-17, No Iterations 1
smoothSolver:  Solving for e, Initial residual = 0.000646054, Final residual = 7.01761e-16, No Iterations 7
smoothSolver:  Solving for p, Initial residual = 0.00034824, Final residual = 8.74908e-17, No Iterations 6
diagonal:  Solving for rho, Initial residual = 0, Final residual = 0, No Iterations 0
time step continuity errors : sum local = 1.47757e-16, global = -4.57938e-17, cumulative = -2.31689e-14
PIMPLE: iteration 2
smoothSolver:  Solving for Ux, Initial residual = 3.94669e-07, Final residual = 4.41196e-17, No Iterations 1
smoothSolver:  Solving for e, Initial residual = 5.19557e-06, Final residual = 3.7809e-16, No Iterations 6
smoothSolver:  Solving for p, Initial residual = 1.56504e-06, Final residual = 7.24059e-17, No Iterations 5
diagonal:  Solving for rho, Initial residual = 0, Final residual = 0, No Iterations 0
time step continuity errors : sum local = 1.35486e-16, global = -2.43436e-17, cumulative = -2.31933e-14
ExecutionTime = 3.36 s  ClockTime = 3 s

Courant Number mean: 0.202663 max: 0.291677
Time = 0.00986

PIMPLE: iteration 1
diagonal:  Solving for rho, Initial residual = 0, Final residual = 0, No Iterations 0
smoothSolver:  Solving for Ux, Initial residual = 0.000340552, Final residual = 4.58456e-17, No Iterations 1
smoothSolver:  Solving for e, Initial residual = 0.00064618, Final residual = 7.0238e-16, No Iterations 7
smoothSolver:  Solving for p, Initial residual = 0.000348449, Final residual = 9.0333e-17, No Iterations 6
diagonal:  Solving for rho, Initial residual = 0, Final residual = 0, No Iterations 0
time step continuity errors : sum local = 1.50872e-16, global = -4.94923e-17, cumulative = -2.32428e-14
PIMPLE: iteration 2
smoothSolver:  Solving for Ux, Initial residual = 3.94272e-07, Final residual = 4.52247e-17, No Iterations 1
smoothSolver:  Solving for e, Initial residual = 5.19203e-06, Final residual = 3.79673e-16, No Iterations 6
smoothSolver:  Solving for p, Initial residual = 1.56527e-06, Final residual = 7.48388e-17, No Iterations 5
diagonal:  Solving for rho, Initial residual = 0, Final residual = 0, No Iterations 0
time step continuity errors : sum local = 1.37401e-16, global = -1.70629e-17, cumulative = -2.32598e-14
ExecutionTime = 3.36 s  ClockTime = 3 s

Courant Number mean: 0.202721 max: 0.291676
Time = 0.00987

PIMPLE: iteration 1
diagonal:  Solving for rho, Initial residual = 0, Final residual = 0, No Iterations 0
smoothSolver:  Solving for Ux, Initial residual = 0.00034078, Final residual = 4.67889e-17, No Iterations 1
smoothSolver:  Solving for e, Initial residual = 0.000646304, Final residual = 7.0426e-16, No Iterations 7
smoothSolver:  Solving for p, Initial residual = 0.000348657, Final residual = 8.7307e-17, No Iterations 6
diagonal:  Solving for rho, Initial residual = 0, Final residual = 0, No Iterations 0
time step continuity errors : sum local = 1.43308e-16, global = -5.14952e-17, cumulative = -2.33113e-14
PIMPLE: iteration 2
smoothSolver:  Solving for Ux, Initial residual = 3.93875e-07, Final residual = 4.57403e-17, No Iterations 1
smoothSolver:  Solving for e, Initial residual = 5.18534e-06, Final residual = 3.78396e-16, No Iterations 6
smoothSolver:  Solving for p, Initial residual = 1.56475e-06, Final residual = 7.15127e-17, No Iterations 5
diagonal:  Solving for rho, Initial residual = 0, Final residual = 0, No Iterations 0
time step continuity errors : sum local = 1.33029e-16, global = -1.49695e-18, cumulative = -2.33128e-14
ExecutionTime = 3.36 s  ClockTime = 3 s

Courant Number mean: 0.202779 max: 0.291676
Time = 0.00988

PIMPLE: iteration 1
diagonal:  Solving for rho, Initial residual = 0, Final residual = 0, No Iterations 0
smoothSolver:  Solving for Ux, Initial residual = 0.000341008, Final residual = 4.35118e-17, No Iterations 1
smoothSolver:  Solving for e, Initial residual = 0.00064643, Final residual = 7.04988e-16, No Iterations 7
smoothSolver:  Solving for p, Initial residual = 0.000348865, Final residual = 8.74301e-17, No Iterations 6
diagonal:  Solving for rho, Initial residual = 0, Final residual = 0, No Iterations 0
time step continuity errors : sum local = 1.46024e-16, global = -4.5414e-17, cumulative = -2.33582e-14
PIMPLE: iteration 2
smoothSolver:  Solving for Ux, Initial residual = 3.93458e-07, Final residual = 4.46866e-17, No Iterations 1
smoothSolver:  Solving for e, Initial residual = 5.18335e-06, Final residual = 3.79944e-16, No Iterations 6
smoothSolver:  Solving for p, Initial residual = 1.56373e-06, Final residual = 7.58181e-17, No Iterations 5
diagonal:  Solving for rho, Initial residual = 0, Final residual = 0, No Iterations 0
time step continuity errors : sum local = 1.4283e-16, global = -1.76666e-17, cumulative = -2.33759e-14
ExecutionTime = 3.37 s  ClockTime = 3 s

Courant Number mean: 0.202837 max: 0.291676
Time = 0.00989

PIMPLE: iteration 1
diagonal:  Solving for rho, Initial residual = 0, Final residual = 0, No Iterations 0
smoothSolver:  Solving for Ux, Initial residual = 0.000341236, Final residual = 4.48913e-17, No Iterations 1
smoothSolver:  Solving for e, Initial residual = 0.000646567, Final residual = 7.03403e-16, No Iterations 7
smoothSolver:  Solving for p, Initial residual = 0.000349075, Final residual = 8.57397e-17, No Iterations 6
diagonal:  Solving for rho, Initial residual = 0, Final residual = 0, No Iterations 0
time step continuity errors : sum local = 1.39755e-16, global = -3.01472e-17, cumulative = -2.34061e-14
PIMPLE: iteration 2
smoothSolver:  Solving for Ux, Initial residual = 3.93151e-07, Final residual = 4.52234e-17, No Iterations 1
smoothSolver:  Solving for e, Initial residual = 5.18311e-06, Final residual = 3.79538e-16, No Iterations 6
smoothSolver:  Solving for p, Initial residual = 1.56458e-06, Final residual = 7.33008e-17, No Iterations 5
diagonal:  Solving for rho, Initial residual = 0, Final residual = 0, No Iterations 0
time step continuity errors : sum local = 1.39556e-16, global = -9.78287e-18, cumulative = -2.34158e-14
ExecutionTime = 3.37 s  ClockTime = 3 s

Courant Number mean: 0.202895 max: 0.291676
Time = 0.0099

PIMPLE: iteration 1
diagonal:  Solving for rho, Initial residual = 0, Final residual = 0, No Iterations 0
smoothSolver:  Solving for Ux, Initial residual = 0.000341465, Final residual = 4.73158e-17, No Iterations 1
smoothSolver:  Solving for e, Initial residual = 0.000646701, Final residual = 7.04334e-16, No Iterations 7
smoothSolver:  Solving for p, Initial residual = 0.000349285, Final residual = 8.92517e-17, No Iterations 6
diagonal:  Solving for rho, Initial residual = 0, Final residual = 0, No Iterations 0
time step continuity errors : sum local = 1.42071e-16, global = -3.80388e-17, cumulative = -2.34539e-14
PIMPLE: iteration 2
smoothSolver:  Solving for Ux, Initial residual = 3.92878e-07, Final residual = 4.64855e-17, No Iterations 1
smoothSolver:  Solving for e, Initial residual = 5.17505e-06, Final residual = 3.80078e-16, No Iterations 6
smoothSolver:  Solving for p, Initial residual = 1.56371e-06, Final residual = 7.50337e-17, No Iterations 5
diagonal:  Solving for rho, Initial residual = 0, Final residual = 0, No Iterations 0
time step continuity errors : sum local = 1.31089e-16, global = -8.98554e-19, cumulative = -2.34548e-14
ExecutionTime = 3.37 s  ClockTime = 3 s

Courant Number mean: 0.202952 max: 0.291676
Time = 0.00991

PIMPLE: iteration 1
diagonal:  Solving for rho, Initial residual = 0, Final residual = 0, No Iterations 0
smoothSolver:  Solving for Ux, Initial residual = 0.000341694, Final residual = 4.59725e-17, No Iterations 1
smoothSolver:  Solving for e, Initial residual = 0.00064683, Final residual = 7.04871e-16, No Iterations 7
smoothSolver:  Solving for p, Initial residual = 0.000349495, Final residual = 8.59565e-17, No Iterations 6
diagonal:  Solving for rho, Initial residual = 0, Final residual = 0, No Iterations 0
time step continuity errors : sum local = 1.5018e-16, global = -4.17387e-17, cumulative = -2.34965e-14
PIMPLE: iteration 2
smoothSolver:  Solving for Ux, Initial residual = 3.92644e-07, Final residual = 4.62839e-17, No Iterations 1
smoothSolver:  Solving for e, Initial residual = 5.1702e-06, Final residual = 3.79382e-16, No Iterations 6
smoothSolver:  Solving for p, Initial residual = 1.5626e-06, Final residual = 7.68183e-17, No Iterations 5
diagonal:  Solving for rho, Initial residual = 0, Final residual = 0, No Iterations 0
time step continuity errors : sum local = 1.361e-16, global = -9.88549e-18, cumulative = -2.35064e-14
ExecutionTime = 3.38 s  ClockTime = 3 s

Courant Number mean: 0.20301 max: 0.291676
Time = 0.00992

PIMPLE: iteration 1
diagonal:  Solving for rho, Initial residual = 0, Final residual = 0, No Iterations 0
smoothSolver:  Solving for Ux, Initial residual = 0.000341924, Final residual = 4.8304e-17, No Iterations 1
smoothSolver:  Solving for e, Initial residual = 0.000646968, Final residual = 7.05562e-16, No Iterations 7
smoothSolver:  Solving for p, Initial residual = 0.000349706, Final residual = 8.75852e-17, No Iterations 6
diagonal:  Solving for rho, Initial residual = 0, Final residual = 0, No Iterations 0
time step continuity errors : sum local = 1.3592e-16, global = -3.58525e-17, cumulative = -2.35423e-14
PIMPLE: iteration 2
smoothSolver:  Solving for Ux, Initial residual = 3.92381e-07, Final residual = 4.51031e-17, No Iterations 1
smoothSolver:  Solving for e, Initial residual = 5.16851e-06, Final residual = 3.78661e-16, No Iterations 6
smoothSolver:  Solving for p, Initial residual = 1.56236e-06, Final residual = 7.17292e-17, No Iterations 5
diagonal:  Solving for rho, Initial residual = 0, Final residual = 0, No Iterations 0
time step continuity errors : sum local = 1.37418e-16, global = -9.38755e-18, cumulative = -2.35516e-14
ExecutionTime = 3.38 s  ClockTime = 3 s

Courant Number mean: 0.203068 max: 0.291676
Time = 0.00993

PIMPLE: iteration 1
diagonal:  Solving for rho, Initial residual = 0, Final residual = 0, No Iterations 0
smoothSolver:  Solving for Ux, Initial residual = 0.000342154, Final residual = 4.79379e-17, No Iterations 1
smoothSolver:  Solving for e, Initial residual = 0.000647107, Final residual = 7.05589e-16, No Iterations 7
smoothSolver:  Solving for p, Initial residual = 0.000349918, Final residual = 8.7412e-17, No Iterations 6
diagonal:  Solving for rho, Initial residual = 0, Final residual = 0, No Iterations 0
time step continuity errors : sum local = 1.4363e-16, global = -3.99527e-17, cumulative = -2.35916e-14
PIMPLE: iteration 2
smoothSolver:  Solving for Ux, Initial residual = 3.92086e-07, Final residual = 4.78611e-17, No Iterations 1
smoothSolver:  Solving for e, Initial residual = 5.16399e-06, Final residual = 3.79117e-16, No Iterations 6
smoothSolver:  Solving for p, Initial residual = 1.56278e-06, Final residual = 7.78955e-17, No Iterations 5
diagonal:  Solving for rho, Initial residual = 0, Final residual = 0, No Iterations 0
time step continuity errors : sum local = 1.37637e-16, global = -1.35839e-17, cumulative = -2.36052e-14
ExecutionTime = 3.38 s  ClockTime = 3 s

Courant Number mean: 0.203126 max: 0.291676
Time = 0.00994

PIMPLE: iteration 1
diagonal:  Solving for rho, Initial residual = 0, Final residual = 0, No Iterations 0
smoothSolver:  Solving for Ux, Initial residual = 0.000342385, Final residual = 4.53225e-17, No Iterations 1
smoothSolver:  Solving for e, Initial residual = 0.000647244, Final residual = 7.05232e-16, No Iterations 7
smoothSolver:  Solving for p, Initial residual = 0.00035013, Final residual = 8.67148e-17, No Iterations 6
diagonal:  Solving for rho, Initial residual = 0, Final residual = 0, No Iterations 0
time step continuity errors : sum local = 1.40254e-16, global = -3.63621e-17, cumulative = -2.36415e-14
PIMPLE: iteration 2
smoothSolver:  Solving for Ux, Initial residual = 3.91799e-07, Final residual = 4.66357e-17, No Iterations 1
smoothSolver:  Solving for e, Initial residual = 5.15721e-06, Final residual = 3.79535e-16, No Iterations 6
smoothSolver:  Solving for p, Initial residual = 1.56243e-06, Final residual = 7.51948e-17, No Iterations 5
diagonal:  Solving for rho, Initial residual = 0, Final residual = 0, No Iterations 0
time step continuity errors : sum local = 1.28866e-16, global = -6.39334e-18, cumulative = -2.36479e-14
ExecutionTime = 3.39 s  ClockTime = 3 s

Courant Number mean: 0.203184 max: 0.291676
Time = 0.00995

PIMPLE: iteration 1
diagonal:  Solving for rho, Initial residual = 0, Final residual = 0, No Iterations 0
smoothSolver:  Solving for Ux, Initial residual = 0.000342616, Final residual = 4.76349e-17, No Iterations 1
smoothSolver:  Solving for e, Initial residual = 0.000647381, Final residual = 7.04481e-16, No Iterations 7
smoothSolver:  Solving for p, Initial residual = 0.000350341, Final residual = 8.63284e-17, No Iterations 6
diagonal:  Solving for rho, Initial residual = 0, Final residual = 0, No Iterations 0
time step continuity errors : sum local = 1.46468e-16, global = -4.23618e-17, cumulative = -2.36903e-14
PIMPLE: iteration 2
smoothSolver:  Solving for Ux, Initial residual = 3.91511e-07, Final residual = 4.45739e-17, No Iterations 1
smoothSolver:  Solving for e, Initial residual = 5.15776e-06, Final residual = 3.78066e-16, No Iterations 6
smoothSolver:  Solving for p, Initial residual = 1.56148e-06, Final residual = 7.48934e-17, No Iterations 5
diagonal:  Solving for rho, Initial residual = 0, Final residual = 0, No Iterations 0
time step continuity errors : sum local = 1.34679e-16, global = -4.79568e-18, cumulative = -2.36951e-14
ExecutionTime = 3.39 s  ClockTime = 3 s

Courant Number mean: 0.203241 max: 0.291676
Time = 0.00996

PIMPLE: iteration 1
diagonal:  Solving for rho, Initial residual = 0, Final residual = 0, No Iterations 0
smoothSolver:  Solving for Ux, Initial residual = 0.000342847, Final residual = 4.66385e-17, No Iterations 1
smoothSolver:  Solving for e, Initial residual = 0.00064753, Final residual = 7.05325e-16, No Iterations 7
smoothSolver:  Solving for p, Initial residual = 0.000350555, Final residual = 8.50274e-17, No Iterations 6
diagonal:  Solving for rho, Initial residual = 0, Final residual = 0, No Iterations 0
time step continuity errors : sum local = 1.41593e-16, global = -3.40741e-17, cumulative = -2.37292e-14
PIMPLE: iteration 2
smoothSolver:  Solving for Ux, Initial residual = 3.91217e-07, Final residual = 4.59212e-17, No Iterations 1
smoothSolver:  Solving for e, Initial residual = 5.15604e-06, Final residual = 3.7706e-16, No Iterations 6
smoothSolver:  Solving for p, Initial residual = 1.56222e-06, Final residual = 7.34216e-17, No Iterations 5
diagonal:  Solving for rho, Initial residual = 0, Final residual = 0, No Iterations 0
time step continuity errors : sum local = 1.34498e-16, global = -1.11915e-17, cumulative = -2.37404e-14
ExecutionTime = 3.39 s  ClockTime = 3 s

Courant Number mean: 0.203299 max: 0.291676
Time = 0.00997

PIMPLE: iteration 1
diagonal:  Solving for rho, Initial residual = 0, Final residual = 0, No Iterations 0
smoothSolver:  Solving for Ux, Initial residual = 0.00034308, Final residual = 4.56385e-17, No Iterations 1
smoothSolver:  Solving for e, Initial residual = 0.000647676, Final residual = 7.0623e-16, No Iterations 7
smoothSolver:  Solving for p, Initial residual = 0.000350768, Final residual = 8.3661e-17, No Iterations 6
diagonal:  Solving for rho, Initial residual = 0, Final residual = 0, No Iterations 0
time step continuity errors : sum local = 1.53405e-16, global = -4.82702e-17, cumulative = -2.37886e-14
PIMPLE: iteration 2
smoothSolver:  Solving for Ux, Initial residual = 3.90927e-07, Final residual = 4.68495e-17, No Iterations 1
smoothSolver:  Solving for e, Initial residual = 5.15155e-06, Final residual = 3.77967e-16, No Iterations 6
smoothSolver:  Solving for p, Initial residual = 1.56215e-06, Final residual = 7.45237e-17, No Iterations 5
diagonal:  Solving for rho, Initial residual = 0, Final residual = 0, No Iterations 0
time step continuity errors : sum local = 1.35616e-16, global = -2.5884e-17, cumulative = -2.38145e-14
ExecutionTime = 3.4 s  ClockTime = 3 s

Courant Number mean: 0.203357 max: 0.291676
Time = 0.00998

PIMPLE: iteration 1
diagonal:  Solving for rho, Initial residual = 0, Final residual = 0, No Iterations 0
smoothSolver:  Solving for Ux, Initial residual = 0.000343312, Final residual = 4.69205e-17, No Iterations 1
smoothSolver:  Solving for e, Initial residual = 0.000647817, Final residual = 7.07297e-16, No Iterations 7
smoothSolver:  Solving for p, Initial residual = 0.000350981, Final residual = 8.66569e-17, No Iterations 6
diagonal:  Solving for rho, Initial residual = 0, Final residual = 0, No Iterations 0
time step continuity errors : sum local = 1.4723e-16, global = -4.12804e-17, cumulative = -2.38558e-14
PIMPLE: iteration 2
smoothSolver:  Solving for Ux, Initial residual = 3.90745e-07, Final residual = 4.49344e-17, No Iterations 1
smoothSolver:  Solving for e, Initial residual = 5.14941e-06, Final residual = 3.75476e-16, No Iterations 6
smoothSolver:  Solving for p, Initial residual = 1.56129e-06, Final residual = 7.46404e-17, No Iterations 5
diagonal:  Solving for rho, Initial residual = 0, Final residual = 0, No Iterations 0
time step continuity errors : sum local = 1.37735e-16, global = -7.9962e-18, cumulative = -2.38638e-14
ExecutionTime = 3.4 s  ClockTime = 3 s

Courant Number mean: 0.203415 max: 0.291676
Time = 0.00999

PIMPLE: iteration 1
diagonal:  Solving for rho, Initial residual = 0, Final residual = 0, No Iterations 0
smoothSolver:  Solving for Ux, Initial residual = 0.000343545, Final residual = 4.59553e-17, No Iterations 1
smoothSolver:  Solving for e, Initial residual = 0.000647964, Final residual = 7.06041e-16, No Iterations 7
smoothSolver:  Solving for p, Initial residual = 0.000351195, Final residual = 9.04022e-17, No Iterations 6
diagonal:  Solving for rho, Initial residual = 0, Final residual = 0, No Iterations 0
time step continuity errors : sum local = 1.45252e-16, global = -5.50816e-17, cumulative = -2.39189e-14
PIMPLE: iteration 2
smoothSolver:  Solving for Ux, Initial residual = 3.90551e-07, Final residual = 4.53021e-17, No Iterations 1
smoothSolver:  Solving for e, Initial residual = 5.14862e-06, Final residual = 3.77909e-16, No Iterations 6
smoothSolver:  Solving for p, Initial residual = 1.56113e-06, Final residual = 7.45724e-17, No Iterations 5
diagonal:  Solving for rho, Initial residual = 0, Final residual = 0, No Iterations 0
time step continuity errors : sum local = 1.34155e-16, global = -1.03965e-17, cumulative = -2.39293e-14
ExecutionTime = 3.4 s  ClockTime = 3 s

Courant Number mean: 0.203473 max: 0.291676
Time = 0.01

PIMPLE: iteration 1
diagonal:  Solving for rho, Initial residual = 0, Final residual = 0, No Iterations 0
smoothSolver:  Solving for Ux, Initial residual = 0.000343779, Final residual = 4.70161e-17, No Iterations 1
smoothSolver:  Solving for e, Initial residual = 0.000648117, Final residual = 7.06232e-16, No Iterations 7
smoothSolver:  Solving for p, Initial residual = 0.00035141, Final residual = 8.60384e-17, No Iterations 6
diagonal:  Solving for rho, Initial residual = 0, Final residual = 0, No Iterations 0
time step continuity errors : sum local = 1.46172e-16, global = -3.51932e-17, cumulative = -2.39645e-14
PIMPLE: iteration 2
smoothSolver:  Solving for Ux, Initial residual = 3.90331e-07, Final residual = 4.43117e-17, No Iterations 1
smoothSolver:  Solving for e, Initial residual = 5.14487e-06, Final residual = 3.76539e-16, No Iterations 6
smoothSolver:  Solving for p, Initial residual = 1.56117e-06, Final residual = 8.04897e-17, No Iterations 5
diagonal:  Solving for rho, Initial residual = 0, Final residual = 0, No Iterations 0
time step continuity errors : sum local = 1.36674e-16, global = -5.09902e-18, cumulative = -2.39696e-14
ExecutionTime = 3.41 s  ClockTime = 3 s

    functionObjects::mag mag(U) writing field: mag(U)
End

