/*---------------------------------------------------------------------------*\
| =========                 |                                                 |
| \\      /  F ield         | OpenFOAM: The Open Source CFD Toolbox           |
|  \\    /   O peration     | Version:  2012                                  |
|   \\  /    A nd           | Website:  www.openfoam.com                      |
|    \\/     M anipulation  |                                                 |
\*---------------------------------------------------------------------------*/
Build  : _269d0ffd5c-20210619 OPENFOAM=2012 patch=210618
Arch   : "LSB;label=32;scalar=64"
Exec   : mhdFoam
Date   : Apr 19 2022
Time   : 12:57:29
Host   : gabrielmarconcini-Lenovo-G50-80
PID    : 141696
I/O    : uncollated
Case   : /home/gabrielmarconcini/Documentos/TCC/PTCC/Hartmann/mhdFoam/sim1
nProcs : 1
trapFpe: Floating point exception trapping enabled (FOAM_SIGFPE).
fileModificationChecking : Monitoring run-time modified files using timeStampMaster (fileModificationSkew 5, maxFileModificationPolls 20)
allowSystemOperations : Allowing user-supplied system call operations

// * * * * * * * * * * * * * * * * * * * * * * * * * * * * * * * * * * * * * //
Create time

Create mesh for time = 0


PISO: Operating solver in PISO mode


BPISO: Operating solver in PISO mode

Reading transportProperties

Reading field p

Reading field U

Reading/calculating face flux field phi

Reading field pB

Reading field B

Calculating face flux phiB


Starting time loop
Time = 0.005

Courant Number mean: 0.000125 max: 0.0125
smoothSolver:  Solving for Ux, Initial residual = 1, Final residual = 4.40997e-06, No Iterations 14
smoothSolver:  Solving for Uy, Initial residual = 0, Final residual = 0, No Iterations 0
DICPCG:  Solving for p, Initial residual = 1, Final residual = 0.0383731, No Iterations 81
time step continuity errors : sum local = 9.59327e-06, global = 1.61864e-07, cumulative = 1.61864e-07
DICPCG:  Solving for p, Initial residual = 0.00409212, Final residual = 0.000166836, No Iterations 80
time step continuity errors : sum local = 8.60391e-06, global = -1.54761e-08, cumulative = 1.46388e-07
DICPCG:  Solving for p, Initial residual = 0.00412447, Final residual = 8.63697e-07, No Iterations 93
time step continuity errors : sum local = 9.51226e-09, global = -1.26738e-10, cumulative = 1.46261e-07
smoothSolver:  Solving for Bx, Initial residual = 1, Final residual = 6.14638e-06, No Iterations 13
smoothSolver:  Solving for By, Initial residual = 1, Final residual = 6.71788e-06, No Iterations 14
DICPCG:  Solving for pB, Initial residual = 1, Final residual = 5.91663e-06, No Iterations 92
magnetic flux divergence error = 4.01846e-11
smoothSolver:  Solving for Bx, Initial residual = 2.34191e-05, Final residual = 5.57552e-06, No Iterations 1
smoothSolver:  Solving for By, Initial residual = 0.00151619, Final residual = 7.8453e-06, No Iterations 5
DICPCG:  Solving for pB, Initial residual = 0.00369933, Final residual = 9.54083e-06, No Iterations 74
magnetic flux divergence error = 1.29526e-10
smoothSolver:  Solving for Bx, Initial residual = 5.56559e-06, Final residual = 5.56559e-06, No Iterations 0
smoothSolver:  Solving for By, Initial residual = 7.81362e-06, Final residual = 7.81362e-06, No Iterations 0
DICPCG:  Solving for pB, Initial residual = 9.54728e-06, Final residual = 9.54728e-06, No Iterations 0
magnetic flux divergence error = 1.29526e-10
Time = 0.01

Courant Number mean: 0.0251034 max: 0.0390188
smoothSolver:  Solving for Ux, Initial residual = 0.698722, Final residual = 5.22501e-06, No Iterations 15
smoothSolver:  Solving for Uy, Initial residual = 0.54958, Final residual = 5.18032e-06, No Iterations 14
DICPCG:  Solving for p, Initial residual = 0.0252424, Final residual = 0.00116309, No Iterations 80
time step continuity errors : sum local = 1.25301e-05, global = 1.62941e-08, cumulative = 1.62555e-07
DICPCG:  Solving for p, Initial residual = 0.0055565, Final residual = 0.000264238, No Iterations 80
time step continuity errors : sum local = 1.01988e-05, global = 8.11347e-08, cumulative = 2.4369e-07
DICPCG:  Solving for p, Initial residual = 0.180712, Final residual = 8.26553e-07, No Iterations 102
time step continuity errors : sum local = 2.20566e-10, global = 8.94444e-13, cumulative = 2.43691e-07
smoothSolver:  Solving for Bx, Initial residual = 0.300461, Final residual = 5.68395e-06, No Iterations 13
smoothSolver:  Solving for By, Initial residual = 0.483992, Final residual = 8.12651e-06, No Iterations 13
DICPCG:  Solving for pB, Initial residual = 0.461927, Final residual = 8.26595e-06, No Iterations 88
magnetic flux divergence error = 1.8794e-10
smoothSolver:  Solving for Bx, Initial residual = 1.46092e-05, Final residual = 4.57259e-06, No Iterations 1
smoothSolver:  Solving for By, Initial residual = 0.00134568, Final residual = 4.4111e-06, No Iterations 6
DICPCG:  Solving for pB, Initial residual = 0.00325503, Final residual = 9.37819e-06, No Iterations 12
magnetic flux divergence error = 2.99489e-10
smoothSolver:  Solving for Bx, Initial residual = 4.56648e-06, Final residual = 4.56648e-06, No Iterations 0
smoothSolver:  Solving for By, Initial residual = 4.47603e-06, Final residual = 4.47603e-06, No Iterations 0
DICPCG:  Solving for pB, Initial residual = 9.37508e-06, Final residual = 9.37508e-06, No Iterations 0
magnetic flux divergence error = 2.99489e-10
Time = 0.015

Courant Number mean: 0.0252642 max: 0.0515153
smoothSolver:  Solving for Ux, Initial residual = 0.0964327, Final residual = 7.68435e-06, No Iterations 11
smoothSolver:  Solving for Uy, Initial residual = 0.277055, Final residual = 7.12988e-06, No Iterations 13
DICPCG:  Solving for p, Initial residual = 0.0911906, Final residual = 0.00313206, No Iterations 81
time step continuity errors : sum local = 1.73823e-06, global = 4.49898e-08, cumulative = 2.8868e-07
DICPCG:  Solving for p, Initial residual = 0.0289672, Final residual = 0.00124276, No Iterations 81
time step continuity errors : sum local = 1.20814e-06, global = -2.78035e-08, cumulative = 2.60877e-07
DICPCG:  Solving for p, Initial residual = 0.00865725, Final residual = 8.64171e-07, No Iterations 93
time step continuity errors : sum local = 5.39509e-10, global = -7.88122e-12, cumulative = 2.60869e-07
smoothSolver:  Solving for Bx, Initial residual = 0.165968, Final residual = 4.6758e-06, No Iterations 13
smoothSolver:  Solving for By, Initial residual = 0.229691, Final residual = 4.67358e-06, No Iterations 13
DICPCG:  Solving for pB, Initial residual = 0.237081, Final residual = 8.6891e-06, No Iterations 88
magnetic flux divergence error = 3.518e-10
smoothSolver:  Solving for Bx, Initial residual = 9.27096e-06, Final residual = 9.27096e-06, No Iterations 0
smoothSolver:  Solving for By, Initial residual = 0.000830403, Final residual = 8.07563e-06, No Iterations 5
DICPCG:  Solving for pB, Initial residual = 0.00185852, Final residual = 8.74711e-06, No Iterations 10
magnetic flux divergence error = 4.28747e-10
smoothSolver:  Solving for Bx, Initial residual = 9.27329e-06, Final residual = 9.27329e-06, No Iterations 0
smoothSolver:  Solving for By, Initial residual = 8.13819e-06, Final residual = 8.13819e-06, No Iterations 0
DICPCG:  Solving for pB, Initial residual = 8.74724e-06, Final residual = 8.74724e-06, No Iterations 0
magnetic flux divergence error = 4.28747e-10
Time = 0.02

Courant Number mean: 0.0253247 max: 0.052961
smoothSolver:  Solving for Ux, Initial residual = 0.0776723, Final residual = 6.30722e-06, No Iterations 11
smoothSolver:  Solving for Uy, Initial residual = 0.132395, Final residual = 4.92335e-06, No Iterations 12
DICPCG:  Solving for p, Initial residual = 0.0403713, Final residual = 0.00107128, No Iterations 79
time step continuity errors : sum local = 6.72664e-07, global = -4.30606e-09, cumulative = 2.56563e-07
DICPCG:  Solving for p, Initial residual = 0.0181694, Final residual = 0.000569658, No Iterations 79
time step continuity errors : sum local = 4.81773e-07, global = -4.32018e-10, cumulative = 2.56131e-07
DICPCG:  Solving for p, Initial residual = 0.00279662, Final residual = 9.05503e-07, No Iterations 90
time step continuity errors : sum local = 6.03044e-10, global = 5.49486e-12, cumulative = 2.56136e-07
smoothSolver:  Solving for Bx, Initial residual = 0.1272, Final residual = 8.54144e-06, No Iterations 12
smoothSolver:  Solving for By, Initial residual = 0.14693, Final residual = 7.46836e-06, No Iterations 12
DICPCG:  Solving for pB, Initial residual = 0.154328, Final residual = 8.21338e-06, No Iterations 87
magnetic flux divergence error = 4.5898e-10
smoothSolver:  Solving for Bx, Initial residual = 1.04519e-05, Final residual = 4.33884e-06, No Iterations 1
smoothSolver:  Solving for By, Initial residual = 0.000582825, Final residual = 6.30292e-06, No Iterations 5
DICPCG:  Solving for pB, Initial residual = 0.00120632, Final residual = 8.66321e-06, No Iterations 6
magnetic flux divergence error = 5.43692e-10
smoothSolver:  Solving for Bx, Initial residual = 4.3445e-06, Final residual = 4.3445e-06, No Iterations 0
smoothSolver:  Solving for By, Initial residual = 6.29851e-06, Final residual = 6.29851e-06, No Iterations 0
DICPCG:  Solving for pB, Initial residual = 8.6621e-06, Final residual = 8.6621e-06, No Iterations 0
magnetic flux divergence error = 5.43692e-10
Time = 0.025

Courant Number mean: 0.0253664 max: 0.0531247
smoothSolver:  Solving for Ux, Initial residual = 0.0583524, Final residual = 9.93719e-06, No Iterations 10
smoothSolver:  Solving for Uy, Initial residual = 0.0958315, Final residual = 7.29143e-06, No Iterations 11
DICPCG:  Solving for p, Initial residual = 0.0283684, Final residual = 0.000986594, No Iterations 79
time step continuity errors : sum local = 6.62262e-07, global = -4.89651e-09, cumulative = 2.5124e-07
DICPCG:  Solving for p, Initial residual = 0.0149613, Final residual = 0.000634321, No Iterations 79
time step continuity errors : sum local = 5.52833e-07, global = 4.49346e-10, cumulative = 2.51689e-07
DICPCG:  Solving for p, Initial residual = 0.00215544, Final residual = 8.53944e-07, No Iterations 89
time step continuity errors : sum local = 6.04096e-10, global = 8.27574e-12, cumulative = 2.51698e-07
smoothSolver:  Solving for Bx, Initial residual = 0.102173, Final residual = 6.92896e-06, No Iterations 12
smoothSolver:  Solving for By, Initial residual = 0.104059, Final residual = 5.67201e-06, No Iterations 12
DICPCG:  Solving for pB, Initial residual = 0.11737, Final residual = 9.86993e-06, No Iterations 36
magnetic flux divergence error = 6.73826e-10
smoothSolver:  Solving for Bx, Initial residual = 8.16367e-06, Final residual = 8.16367e-06, No Iterations 0
smoothSolver:  Solving for By, Initial residual = 0.000431635, Final residual = 4.9712e-06, No Iterations 5
DICPCG:  Solving for pB, Initial residual = 0.000919218, Final residual = 7.52208e-06, No Iterations 10
magnetic flux divergence error = 5.54913e-10
smoothSolver:  Solving for Bx, Initial residual = 8.16708e-06, Final residual = 8.16708e-06, No Iterations 0
smoothSolver:  Solving for By, Initial residual = 4.96287e-06, Final residual = 4.96287e-06, No Iterations 0
DICPCG:  Solving for pB, Initial residual = 7.52241e-06, Final residual = 7.52241e-06, No Iterations 0
magnetic flux divergence error = 5.54913e-10
Time = 0.03

Courant Number mean: 0.0253864 max: 0.0522956
smoothSolver:  Solving for Ux, Initial residual = 0.0452219, Final residual = 5.51034e-06, No Iterations 10
smoothSolver:  Solving for Uy, Initial residual = 0.073146, Final residual = 4.66204e-06, No Iterations 11
DICPCG:  Solving for p, Initial residual = 0.0221868, Final residual = 0.000961174, No Iterations 79
time step continuity errors : sum local = 6.84674e-07, global = -3.80025e-09, cumulative = 2.47897e-07
DICPCG:  Solving for p, Initial residual = 0.0128611, Final residual = 0.000500367, No Iterations 80
time step continuity errors : sum local = 4.50994e-07, global = -5.0899e-09, cumulative = 2.42807e-07
DICPCG:  Solving for p, Initial residual = 0.00135906, Final residual = 9.72193e-07, No Iterations 84
time step continuity errors : sum local = 7.26244e-10, global = 6.73111e-12, cumulative = 2.42814e-07
smoothSolver:  Solving for Bx, Initial residual = 0.0831759, Final residual = 5.4826e-06, No Iterations 12
smoothSolver:  Solving for By, Initial residual = 0.075211, Final residual = 9.63161e-06, No Iterations 11
DICPCG:  Solving for pB, Initial residual = 0.0970465, Final residual = 9.14885e-06, No Iterations 33
magnetic flux divergence error = 7.2011e-10
smoothSolver:  Solving for Bx, Initial residual = 6.36588e-06, Final residual = 6.36588e-06, No Iterations 0
smoothSolver:  Solving for By, Initial residual = 0.000321712, Final residual = 9.0591e-06, No Iterations 4
DICPCG:  Solving for pB, Initial residual = 0.000669522, Final residual = 6.57304e-06, No Iterations 10
magnetic flux divergence error = 5.49804e-10
smoothSolver:  Solving for Bx, Initial residual = 6.36835e-06, Final residual = 6.36835e-06, No Iterations 0
smoothSolver:  Solving for By, Initial residual = 9.03238e-06, Final residual = 9.03238e-06, No Iterations 0
DICPCG:  Solving for pB, Initial residual = 6.57364e-06, Final residual = 6.57364e-06, No Iterations 0
magnetic flux divergence error = 5.49804e-10
Time = 0.035

Courant Number mean: 0.0253842 max: 0.0507503
smoothSolver:  Solving for Ux, Initial residual = 0.0394162, Final residual = 6.74978e-06, No Iterations 10
smoothSolver:  Solving for Uy, Initial residual = 0.0605808, Final residual = 7.71786e-06, No Iterations 10
DICPCG:  Solving for p, Initial residual = 0.0181889, Final residual = 0.000816307, No Iterations 79
time step continuity errors : sum local = 6.14148e-07, global = -4.25737e-09, cumulative = 2.38557e-07
DICPCG:  Solving for p, Initial residual = 0.0107616, Final residual = 0.00040974, No Iterations 80
time step continuity errors : sum local = 3.85124e-07, global = -3.78565e-09, cumulative = 2.34771e-07
DICPCG:  Solving for p, Initial residual = 0.00111823, Final residual = 8.45663e-07, No Iterations 88
time step continuity errors : sum local = 6.65871e-10, global = -1.78517e-12, cumulative = 2.34769e-07
smoothSolver:  Solving for Bx, Initial residual = 0.0664405, Final residual = 9.31129e-06, No Iterations 11
smoothSolver:  Solving for By, Initial residual = 0.053126, Final residual = 7.17763e-06, No Iterations 11
DICPCG:  Solving for pB, Initial residual = 0.079574, Final residual = 9.8841e-06, No Iterations 37
magnetic flux divergence error = 8.77604e-10
smoothSolver:  Solving for Bx, Initial residual = 9.33063e-06, Final residual = 9.33063e-06, No Iterations 0
smoothSolver:  Solving for By, Initial residual = 0.00023497, Final residual = 6.65038e-06, No Iterations 4
DICPCG:  Solving for pB, Initial residual = 0.000473171, Final residual = 8.48464e-06, No Iterations 9
magnetic flux divergence error = 7.96922e-10
smoothSolver:  Solving for Bx, Initial residual = 9.33261e-06, Final residual = 9.33261e-06, No Iterations 0
smoothSolver:  Solving for By, Initial residual = 6.61938e-06, Final residual = 6.61938e-06, No Iterations 0
DICPCG:  Solving for pB, Initial residual = 8.48608e-06, Final residual = 8.48608e-06, No Iterations 0
magnetic flux divergence error = 7.96922e-10
Time = 0.04

Courant Number mean: 0.0253615 max: 0.0486745
smoothSolver:  Solving for Ux, Initial residual = 0.0519066, Final residual = 4.92916e-06, No Iterations 11
smoothSolver:  Solving for Uy, Initial residual = 0.0649791, Final residual = 4.91195e-06, No Iterations 11
DICPCG:  Solving for p, Initial residual = 0.0159976, Final residual = 0.000708094, No Iterations 79
time step continuity errors : sum local = 5.61724e-07, global = -4.52611e-09, cumulative = 2.30243e-07
DICPCG:  Solving for p, Initial residual = 0.00904236, Final residual = 0.0003548, No Iterations 80
time step continuity errors : sum local = 3.49695e-07, global = -3.21647e-09, cumulative = 2.27027e-07
DICPCG:  Solving for p, Initial residual = 0.000995682, Final residual = 8.06514e-07, No Iterations 88
time step continuity errors : sum local = 6.69206e-10, global = -2.19134e-12, cumulative = 2.27025e-07
smoothSolver:  Solving for Bx, Initial residual = 0.0508321, Final residual = 6.77858e-06, No Iterations 11
smoothSolver:  Solving for By, Initial residual = 0.0357479, Final residual = 5.26528e-06, No Iterations 11
DICPCG:  Solving for pB, Initial residual = 0.0620029, Final residual = 9.97508e-06, No Iterations 61
magnetic flux divergence error = 9.82227e-10
smoothSolver:  Solving for Bx, Initial residual = 6.89884e-06, Final residual = 6.89884e-06, No Iterations 0
smoothSolver:  Solving for By, Initial residual = 0.000162847, Final residual = 4.56908e-06, No Iterations 4
DICPCG:  Solving for pB, Initial residual = 0.000310755, Final residual = 9.58026e-06, No Iterations 8
magnetic flux divergence error = 9.86844e-10
smoothSolver:  Solving for Bx, Initial residual = 6.90012e-06, Final residual = 6.90012e-06, No Iterations 0
smoothSolver:  Solving for By, Initial residual = 4.54548e-06, Final residual = 4.54548e-06, No Iterations 0
DICPCG:  Solving for pB, Initial residual = 9.58195e-06, Final residual = 9.58195e-06, No Iterations 0
magnetic flux divergence error = 9.86844e-10
Time = 0.045

Courant Number mean: 0.025322 max: 0.0462745
smoothSolver:  Solving for Ux, Initial residual = 0.0683329, Final residual = 7.02288e-06, No Iterations 11
smoothSolver:  Solving for Uy, Initial residual = 0.0829793, Final residual = 7.20014e-06, No Iterations 11
DICPCG:  Solving for p, Initial residual = 0.0140332, Final residual = 0.000613938, No Iterations 79
time step continuity errors : sum local = 5.13174e-07, global = -3.60917e-09, cumulative = 2.23415e-07
DICPCG:  Solving for p, Initial residual = 0.00749237, Final residual = 0.000326537, No Iterations 80
time step continuity errors : sum local = 3.38039e-07, global = -3.66813e-09, cumulative = 2.19747e-07
DICPCG:  Solving for p, Initial residual = 0.000939016, Final residual = 8.70073e-07, No Iterations 87
time step continuity errors : sum local = 7.60843e-10, global = -1.37895e-11, cumulative = 2.19733e-07
smoothSolver:  Solving for Bx, Initial residual = 0.0364504, Final residual = 4.588e-06, No Iterations 11
smoothSolver:  Solving for By, Initial residual = 0.0253837, Final residual = 9.21868e-06, No Iterations 10
DICPCG:  Solving for pB, Initial residual = 0.0473819, Final residual = 9.2927e-06, No Iterations 26
magnetic flux divergence error = 9.88534e-10
smoothSolver:  Solving for Bx, Initial residual = 4.78868e-06, Final residual = 4.78868e-06, No Iterations 0
smoothSolver:  Solving for By, Initial residual = 0.000106812, Final residual = 7.08826e-06, No Iterations 3
DICPCG:  Solving for pB, Initial residual = 0.000177106, Final residual = 9.44096e-06, No Iterations 7
magnetic flux divergence error = 1.03618e-09
smoothSolver:  Solving for Bx, Initial residual = 4.78934e-06, Final residual = 4.78934e-06, No Iterations 0
smoothSolver:  Solving for By, Initial residual = 7.07015e-06, Final residual = 7.07015e-06, No Iterations 0
DICPCG:  Solving for pB, Initial residual = 9.44198e-06, Final residual = 9.44198e-06, No Iterations 0
magnetic flux divergence error = 1.03618e-09
Time = 0.05

Courant Number mean: 0.0252727 max: 0.0439127
smoothSolver:  Solving for Ux, Initial residual = 0.0829784, Final residual = 8.70287e-06, No Iterations 11
smoothSolver:  Solving for Uy, Initial residual = 0.103941, Final residual = 9.4535e-06, No Iterations 11
DICPCG:  Solving for p, Initial residual = 0.0112694, Final residual = 0.000506349, No Iterations 79
time step continuity errors : sum local = 4.45611e-07, global = -2.4371e-09, cumulative = 2.17296e-07
DICPCG:  Solving for p, Initial residual = 0.0056934, Final residual = 0.000283641, No Iterations 80
time step continuity errors : sum local = 3.07904e-07, global = -3.97521e-09, cumulative = 2.13321e-07
DICPCG:  Solving for p, Initial residual = 0.000851127, Final residual = 7.82484e-07, No Iterations 87
time step continuity errors : sum local = 7.20657e-10, global = -1.31111e-11, cumulative = 2.13308e-07
smoothSolver:  Solving for Bx, Initial residual = 0.0237585, Final residual = 6.10034e-06, No Iterations 10
smoothSolver:  Solving for By, Initial residual = 0.0223799, Final residual = 7.77698e-06, No Iterations 10
DICPCG:  Solving for pB, Initial residual = 0.037986, Final residual = 9.55962e-06, No Iterations 19
magnetic flux divergence error = 1.06874e-09
smoothSolver:  Solving for Bx, Initial residual = 6.17044e-06, Final residual = 6.17044e-06, No Iterations 0
smoothSolver:  Solving for By, Initial residual = 6.70831e-05, Final residual = 4.27894e-06, No Iterations 3
DICPCG:  Solving for pB, Initial residual = 0.000113902, Final residual = 8.30539e-06, No Iterations 6
magnetic flux divergence error = 9.45523e-10
smoothSolver:  Solving for Bx, Initial residual = 6.17051e-06, Final residual = 6.17051e-06, No Iterations 0
smoothSolver:  Solving for By, Initial residual = 4.26814e-06, Final residual = 4.26814e-06, No Iterations 0
DICPCG:  Solving for pB, Initial residual = 8.30596e-06, Final residual = 8.30596e-06, No Iterations 0
magnetic flux divergence error = 9.45523e-10
Time = 0.055

Courant Number mean: 0.025223 max: 0.0422007
smoothSolver:  Solving for Ux, Initial residual = 0.0896674, Final residual = 9.43303e-06, No Iterations 11
smoothSolver:  Solving for Uy, Initial residual = 0.125512, Final residual = 5.21857e-06, No Iterations 12
DICPCG:  Solving for p, Initial residual = 0.00876959, Final residual = 0.000387279, No Iterations 79
time step continuity errors : sum local = 3.58419e-07, global = -3.72648e-10, cumulative = 2.12935e-07
DICPCG:  Solving for p, Initial residual = 0.00414398, Final residual = 0.000127891, No Iterations 82
time step continuity errors : sum local = 1.44946e-07, global = -8.52073e-10, cumulative = 2.12083e-07
DICPCG:  Solving for p, Initial residual = 0.000615522, Final residual = 6.33721e-07, No Iterations 86
time step continuity errors : sum local = 6.1355e-10, global = 6.52822e-12, cumulative = 2.1209e-07
smoothSolver:  Solving for Bx, Initial residual = 0.0143972, Final residual = 6.06352e-06, No Iterations 9
smoothSolver:  Solving for By, Initial residual = 0.0213942, Final residual = 6.60479e-06, No Iterations 10
DICPCG:  Solving for pB, Initial residual = 0.033234, Final residual = 9.83952e-06, No Iterations 21
magnetic flux divergence error = 1.12749e-09
smoothSolver:  Solving for Bx, Initial residual = 6.11169e-06, Final residual = 6.11169e-06, No Iterations 0
smoothSolver:  Solving for By, Initial residual = 4.18815e-05, Final residual = 6.16167e-06, No Iterations 2
DICPCG:  Solving for pB, Initial residual = 8.78303e-05, Final residual = 8.18657e-06, No Iterations 5
magnetic flux divergence error = 9.4419e-10
smoothSolver:  Solving for Bx, Initial residual = 6.1118e-06, Final residual = 6.1118e-06, No Iterations 0
smoothSolver:  Solving for By, Initial residual = 6.15264e-06, Final residual = 6.15264e-06, No Iterations 0
DICPCG:  Solving for pB, Initial residual = 8.18692e-06, Final residual = 8.18692e-06, No Iterations 0
magnetic flux divergence error = 9.4419e-10
Time = 0.06

Courant Number mean: 0.0251835 max: 0.0410977
smoothSolver:  Solving for Ux, Initial residual = 0.0824529, Final residual = 8.68333e-06, No Iterations 11
smoothSolver:  Solving for Uy, Initial residual = 0.139738, Final residual = 5.91738e-06, No Iterations 12
DICPCG:  Solving for p, Initial residual = 0.00931162, Final residual = 0.000197219, No Iterations 79
time step continuity errors : sum local = 1.91826e-07, global = -1.85903e-09, cumulative = 2.10231e-07
DICPCG:  Solving for p, Initial residual = 0.00441455, Final residual = 0.000112871, No Iterations 79
time step continuity errors : sum local = 1.32765e-07, global = 9.51721e-10, cumulative = 2.11183e-07
DICPCG:  Solving for p, Initial residual = 0.000587446, Final residual = 7.30028e-07, No Iterations 87
time step continuity errors : sum local = 7.40513e-10, global = -9.15815e-12, cumulative = 2.11173e-07
smoothSolver:  Solving for Bx, Initial residual = 0.0170318, Final residual = 5.17086e-06, No Iterations 9
smoothSolver:  Solving for By, Initial residual = 0.0223177, Final residual = 5.79657e-06, No Iterations 10
DICPCG:  Solving for pB, Initial residual = 0.0331954, Final residual = 9.35284e-06, No Iterations 28
magnetic flux divergence error = 1.07425e-09
smoothSolver:  Solving for Bx, Initial residual = 5.3075e-06, Final residual = 5.3075e-06, No Iterations 0
smoothSolver:  Solving for By, Initial residual = 2.86945e-05, Final residual = 3.94516e-06, No Iterations 2
DICPCG:  Solving for pB, Initial residual = 8.34341e-05, Final residual = 6.96604e-06, No Iterations 3
magnetic flux divergence error = 7.96799e-10
smoothSolver:  Solving for Bx, Initial residual = 5.30748e-06, Final residual = 5.30748e-06, No Iterations 0
smoothSolver:  Solving for By, Initial residual = 3.93803e-06, Final residual = 3.93803e-06, No Iterations 0
DICPCG:  Solving for pB, Initial residual = 6.96629e-06, Final residual = 6.96629e-06, No Iterations 0
magnetic flux divergence error = 7.96799e-10
Time = 0.065

Courant Number mean: 0.0251554 max: 0.0403378
smoothSolver:  Solving for Ux, Initial residual = 0.0659184, Final residual = 6.7934e-06, No Iterations 11
smoothSolver:  Solving for Uy, Initial residual = 0.146241, Final residual = 5.71582e-06, No Iterations 12
DICPCG:  Solving for p, Initial residual = 0.0106796, Final residual = 0.000452304, No Iterations 78
time step continuity errors : sum local = 4.61242e-07, global = -6.61929e-09, cumulative = 2.04554e-07
DICPCG:  Solving for p, Initial residual = 0.00527957, Final residual = 0.000245417, No Iterations 78
time step continuity errors : sum local = 2.97042e-07, global = 3.39953e-09, cumulative = 2.07954e-07
DICPCG:  Solving for p, Initial residual = 0.000763138, Final residual = 9.27302e-07, No Iterations 86
time step continuity errors : sum local = 9.81148e-10, global = -4.00752e-12, cumulative = 2.0795e-07
smoothSolver:  Solving for Bx, Initial residual = 0.0184639, Final residual = 6.45686e-06, No Iterations 9
smoothSolver:  Solving for By, Initial residual = 0.0250985, Final residual = 5.85657e-06, No Iterations 10
DICPCG:  Solving for pB, Initial residual = 0.0402982, Final residual = 9.84167e-06, No Iterations 36
magnetic flux divergence error = 1.11084e-09
smoothSolver:  Solving for Bx, Initial residual = 6.6807e-06, Final residual = 6.6807e-06, No Iterations 0
smoothSolver:  Solving for By, Initial residual = 2.31694e-05, Final residual = 8.47598e-06, No Iterations 1
DICPCG:  Solving for pB, Initial residual = 6.36004e-05, Final residual = 8.63525e-06, No Iterations 2
magnetic flux divergence error = 9.61624e-10
smoothSolver:  Solving for Bx, Initial residual = 6.68072e-06, Final residual = 6.68072e-06, No Iterations 0
smoothSolver:  Solving for By, Initial residual = 8.47397e-06, Final residual = 8.47397e-06, No Iterations 0
DICPCG:  Solving for pB, Initial residual = 8.63547e-06, Final residual = 8.63547e-06, No Iterations 0
magnetic flux divergence error = 9.61624e-10
Time = 0.07

Courant Number mean: 0.0251396 max: 0.0396629
smoothSolver:  Solving for Ux, Initial residual = 0.0471424, Final residual = 4.58266e-06, No Iterations 11
smoothSolver:  Solving for Uy, Initial residual = 0.134274, Final residual = 4.9015e-06, No Iterations 12
DICPCG:  Solving for p, Initial residual = 0.0105112, Final residual = 0.000472013, No Iterations 78
time step continuity errors : sum local = 5.02083e-07, global = -5.38448e-09, cumulative = 2.02565e-07
DICPCG:  Solving for p, Initial residual = 0.00547696, Final residual = 0.000187135, No Iterations 79
time step continuity errors : sum local = 2.30395e-07, global = -2.28562e-09, cumulative = 2.00279e-07
DICPCG:  Solving for p, Initial residual = 0.000574482, Final residual = 7.43761e-07, No Iterations 86
time step continuity errors : sum local = 8.16185e-10, global = 2.23225e-12, cumulative = 2.00282e-07
smoothSolver:  Solving for Bx, Initial residual = 0.0182695, Final residual = 7.6551e-06, No Iterations 9
smoothSolver:  Solving for By, Initial residual = 0.0262158, Final residual = 5.99998e-06, No Iterations 10
DICPCG:  Solving for pB, Initial residual = 0.0468017, Final residual = 9.73728e-06, No Iterations 36
magnetic flux divergence error = 1.06201e-09
smoothSolver:  Solving for Bx, Initial residual = 7.97317e-06, Final residual = 7.97317e-06, No Iterations 0
smoothSolver:  Solving for By, Initial residual = 2.03832e-05, Final residual = 7.5663e-06, No Iterations 1
DICPCG:  Solving for pB, Initial residual = 6.13415e-05, Final residual = 8.71176e-06, No Iterations 2
magnetic flux divergence error = 9.30178e-10
smoothSolver:  Solving for Bx, Initial residual = 7.97311e-06, Final residual = 7.97311e-06, No Iterations 0
smoothSolver:  Solving for By, Initial residual = 7.56473e-06, Final residual = 7.56473e-06, No Iterations 0
DICPCG:  Solving for pB, Initial residual = 8.71199e-06, Final residual = 8.71199e-06, No Iterations 0
magnetic flux divergence error = 9.30178e-10
Time = 0.075

Courant Number mean: 0.0251306 max: 0.0390594
smoothSolver:  Solving for Ux, Initial residual = 0.0303907, Final residual = 5.86529e-06, No Iterations 10
smoothSolver:  Solving for Uy, Initial residual = 0.109686, Final residual = 8.49723e-06, No Iterations 11
DICPCG:  Solving for p, Initial residual = 0.00926368, Final residual = 0.000441963, No Iterations 78
time step continuity errors : sum local = 4.87173e-07, global = -4.57146e-09, cumulative = 1.9571e-07
DICPCG:  Solving for p, Initial residual = 0.00510753, Final residual = 0.000222556, No Iterations 79
time step continuity errors : sum local = 2.7515e-07, global = -3.13711e-09, cumulative = 1.92573e-07
DICPCG:  Solving for p, Initial residual = 0.000547563, Final residual = 9.94775e-07, No Iterations 85
time step continuity errors : sum local = 1.12328e-09, global = 5.03717e-12, cumulative = 1.92578e-07
smoothSolver:  Solving for Bx, Initial residual = 0.0166085, Final residual = 8.56595e-06, No Iterations 9
smoothSolver:  Solving for By, Initial residual = 0.0251072, Final residual = 5.72797e-06, No Iterations 10
DICPCG:  Solving for pB, Initial residual = 0.0522475, Final residual = 9.98024e-06, No Iterations 39
magnetic flux divergence error = 1.03789e-09
smoothSolver:  Solving for Bx, Initial residual = 8.92839e-06, Final residual = 8.92839e-06, No Iterations 0
smoothSolver:  Solving for By, Initial residual = 1.76879e-05, Final residual = 6.76236e-06, No Iterations 1
DICPCG:  Solving for pB, Initial residual = 5.81403e-05, Final residual = 8.8428e-06, No Iterations 2
magnetic flux divergence error = 8.95028e-10
smoothSolver:  Solving for Bx, Initial residual = 8.92831e-06, Final residual = 8.92831e-06, No Iterations 0
smoothSolver:  Solving for By, Initial residual = 6.76215e-06, Final residual = 6.76215e-06, No Iterations 0
DICPCG:  Solving for pB, Initial residual = 8.84304e-06, Final residual = 8.84304e-06, No Iterations 0
magnetic flux divergence error = 8.95028e-10
Time = 0.08

Courant Number mean: 0.0251246 max: 0.0386418
smoothSolver:  Solving for Ux, Initial residual = 0.0199983, Final residual = 6.26184e-06, No Iterations 9
smoothSolver:  Solving for Uy, Initial residual = 0.0804632, Final residual = 5.65476e-06, No Iterations 11
DICPCG:  Solving for p, Initial residual = 0.00737786, Final residual = 0.000225971, No Iterations 79
time step continuity errors : sum local = 2.55987e-07, global = 1.00544e-09, cumulative = 1.93584e-07
DICPCG:  Solving for p, Initial residual = 0.00437165, Final residual = 0.000194887, No Iterations 79
time step continuity errors : sum local = 2.38965e-07, global = -2.53036e-09, cumulative = 1.91053e-07
DICPCG:  Solving for p, Initial residual = 0.000504601, Final residual = 6.85887e-07, No Iterations 85
time step continuity errors : sum local = 7.89817e-10, global = 4.71607e-12, cumulative = 1.91058e-07
smoothSolver:  Solving for Bx, Initial residual = 0.0139782, Final residual = 8.64793e-06, No Iterations 9
smoothSolver:  Solving for By, Initial residual = 0.0221614, Final residual = 5.06674e-06, No Iterations 10
DICPCG:  Solving for pB, Initial residual = 0.0556707, Final residual = 9.97542e-06, No Iterations 37
magnetic flux divergence error = 9.82627e-10
smoothSolver:  Solving for Bx, Initial residual = 8.99993e-06, Final residual = 8.99993e-06, No Iterations 0
smoothSolver:  Solving for By, Initial residual = 1.51567e-05, Final residual = 5.77368e-06, No Iterations 1
DICPCG:  Solving for pB, Initial residual = 5.28802e-05, Final residual = 8.60207e-06, No Iterations 2
magnetic flux divergence error = 8.24029e-10
smoothSolver:  Solving for Bx, Initial residual = 8.99987e-06, Final residual = 8.99987e-06, No Iterations 0
smoothSolver:  Solving for By, Initial residual = 5.77451e-06, Final residual = 5.77451e-06, No Iterations 0
DICPCG:  Solving for pB, Initial residual = 8.60229e-06, Final residual = 8.60229e-06, No Iterations 0
magnetic flux divergence error = 8.24029e-10
Time = 0.085

Courant Number mean: 0.0251173 max: 0.038385
smoothSolver:  Solving for Ux, Initial residual = 0.0202873, Final residual = 8.53264e-06, No Iterations 9
smoothSolver:  Solving for Uy, Initial residual = 0.0562206, Final residual = 8.43063e-06, No Iterations 10
DICPCG:  Solving for p, Initial residual = 0.00530315, Final residual = 0.000178211, No Iterations 79
time step continuity errors : sum local = 2.05622e-07, global = 5.28137e-10, cumulative = 1.91586e-07
DICPCG:  Solving for p, Initial residual = 0.00364357, Final residual = 0.000156186, No Iterations 79
time step continuity errors : sum local = 1.88068e-07, global = -1.54961e-09, cumulative = 1.90036e-07
DICPCG:  Solving for p, Initial residual = 0.000377756, Final residual = 7.54477e-07, No Iterations 84
time step continuity errors : sum local = 8.78047e-10, global = 2.00517e-11, cumulative = 1.90057e-07
smoothSolver:  Solving for Bx, Initial residual = 0.011028, Final residual = 7.73768e-06, No Iterations 9
smoothSolver:  Solving for By, Initial residual = 0.0181097, Final residual = 9.6382e-06, No Iterations 9
DICPCG:  Solving for pB, Initial residual = 0.0557105, Final residual = 9.33546e-06, No Iterations 43
magnetic flux divergence error = 8.7228e-10
smoothSolver:  Solving for Bx, Initial residual = 8.04632e-06, Final residual = 8.04632e-06, No Iterations 0
smoothSolver:  Solving for By, Initial residual = 1.46875e-05, Final residual = 5.62834e-06, No Iterations 1
DICPCG:  Solving for pB, Initial residual = 5.06486e-05, Final residual = 8.96585e-06, No Iterations 2
magnetic flux divergence error = 8.16615e-10
smoothSolver:  Solving for Bx, Initial residual = 8.04637e-06, Final residual = 8.04637e-06, No Iterations 0
smoothSolver:  Solving for By, Initial residual = 5.62929e-06, Final residual = 5.62929e-06, No Iterations 0
DICPCG:  Solving for pB, Initial residual = 8.96606e-06, Final residual = 8.96606e-06, No Iterations 0
magnetic flux divergence error = 8.16615e-10
Time = 0.09

Courant Number mean: 0.0251085 max: 0.038197
smoothSolver:  Solving for Ux, Initial residual = 0.0224277, Final residual = 5.37834e-06, No Iterations 10
smoothSolver:  Solving for Uy, Initial residual = 0.0469619, Final residual = 8.34059e-06, No Iterations 10
DICPCG:  Solving for p, Initial residual = 0.00400564, Final residual = 0.000131848, No Iterations 79
time step continuity errors : sum local = 1.53547e-07, global = -5.73189e-10, cumulative = 1.89483e-07
DICPCG:  Solving for p, Initial residual = 0.00289475, Final residual = 0.00011733, No Iterations 79
time step continuity errors : sum local = 1.37782e-07, global = -3.83252e-12, cumulative = 1.8948e-07
DICPCG:  Solving for p, Initial residual = 0.000277648, Final residual = 7.51007e-07, No Iterations 84
time step continuity errors : sum local = 8.75918e-10, global = 1.25687e-11, cumulative = 1.89492e-07
smoothSolver:  Solving for Bx, Initial residual = 0.00824994, Final residual = 6.14828e-06, No Iterations 9
smoothSolver:  Solving for By, Initial residual = 0.0139803, Final residual = 7.74932e-06, No Iterations 9
DICPCG:  Solving for pB, Initial residual = 0.0523288, Final residual = 9.7986e-06, No Iterations 32
magnetic flux divergence error = 8.77492e-10
smoothSolver:  Solving for Bx, Initial residual = 6.38227e-06, Final residual = 6.38227e-06, No Iterations 0
smoothSolver:  Solving for By, Initial residual = 1.17043e-05, Final residual = 4.25596e-06, No Iterations 1
DICPCG:  Solving for pB, Initial residual = 4.4615e-05, Final residual = 8.28447e-06, No Iterations 2
magnetic flux divergence error = 7.29247e-10
smoothSolver:  Solving for Bx, Initial residual = 6.38232e-06, Final residual = 6.38232e-06, No Iterations 0
smoothSolver:  Solving for By, Initial residual = 4.25657e-06, Final residual = 4.25657e-06, No Iterations 0
DICPCG:  Solving for pB, Initial residual = 8.28462e-06, Final residual = 8.28462e-06, No Iterations 0
magnetic flux divergence error = 7.29247e-10
Time = 0.095

Courant Number mean: 0.0250997 max: 0.038077
smoothSolver:  Solving for Ux, Initial residual = 0.0252179, Final residual = 6.31095e-06, No Iterations 10
smoothSolver:  Solving for Uy, Initial residual = 0.0488311, Final residual = 4.75958e-06, No Iterations 11
DICPCG:  Solving for p, Initial residual = 0.00315612, Final residual = 0.000114139, No Iterations 75
time step continuity errors : sum local = 1.33064e-07, global = 3.29753e-10, cumulative = 1.89822e-07
DICPCG:  Solving for p, Initial residual = 0.00231118, Final residual = 9.63533e-05, No Iterations 78
time step continuity errors : sum local = 1.1007e-07, global = 1.50498e-09, cumulative = 1.91327e-07
DICPCG:  Solving for p, Initial residual = 0.000201403, Final residual = 9.02928e-07, No Iterations 83
time step continuity errors : sum local = 1.04803e-09, global = 3.62208e-12, cumulative = 1.9133e-07
smoothSolver:  Solving for Bx, Initial residual = 0.00636782, Final residual = 9.40977e-06, No Iterations 8
smoothSolver:  Solving for By, Initial residual = 0.0107826, Final residual = 6.42783e-06, No Iterations 9
DICPCG:  Solving for pB, Initial residual = 0.04653, Final residual = 9.54088e-06, No Iterations 34
magnetic flux divergence error = 8.29919e-10
smoothSolver:  Solving for Bx, Initial residual = 9.56484e-06, Final residual = 9.56484e-06, No Iterations 0
smoothSolver:  Solving for By, Initial residual = 9.35289e-06, Final residual = 9.35289e-06, No Iterations 0
DICPCG:  Solving for pB, Initial residual = 9.65617e-06, Final residual = 9.65617e-06, No Iterations 0
magnetic flux divergence error = 8.29919e-10
smoothSolver:  Solving for Bx, Initial residual = 9.56484e-06, Final residual = 9.56484e-06, No Iterations 0
smoothSolver:  Solving for By, Initial residual = 9.35289e-06, Final residual = 9.35289e-06, No Iterations 0
DICPCG:  Solving for pB, Initial residual = 9.65617e-06, Final residual = 9.65617e-06, No Iterations 0
magnetic flux divergence error = 8.29919e-10
Time = 0.1

Courant Number mean: 0.0250936 max: 0.0380166
smoothSolver:  Solving for Ux, Initial residual = 0.0262512, Final residual = 6.28326e-06, No Iterations 10
smoothSolver:  Solving for Uy, Initial residual = 0.0538512, Final residual = 5.65241e-06, No Iterations 11
DICPCG:  Solving for p, Initial residual = 0.00277244, Final residual = 9.02865e-05, No Iterations 78
time step continuity errors : sum local = 1.04694e-07, global = -1.15916e-09, cumulative = 1.90171e-07
DICPCG:  Solving for p, Initial residual = 0.00191431, Final residual = 5.42227e-05, No Iterations 78
time step continuity errors : sum local = 6.0345e-08, global = 9.80108e-10, cumulative = 1.91151e-07
DICPCG:  Solving for p, Initial residual = 0.000166393, Final residual = 8.28232e-07, No Iterations 82
time step continuity errors : sum local = 9.52168e-10, global = 8.4572e-12, cumulative = 1.9116e-07
smoothSolver:  Solving for Bx, Initial residual = 0.00551928, Final residual = 5.37917e-06, No Iterations 8
smoothSolver:  Solving for By, Initial residual = 0.00889326, Final residual = 5.81915e-06, No Iterations 9
DICPCG:  Solving for pB, Initial residual = 0.040199, Final residual = 9.85325e-06, No Iterations 29
magnetic flux divergence error = 8.43563e-10
smoothSolver:  Solving for Bx, Initial residual = 5.45706e-06, Final residual = 5.45706e-06, No Iterations 0
smoothSolver:  Solving for By, Initial residual = 8.34834e-06, Final residual = 8.34834e-06, No Iterations 0
DICPCG:  Solving for pB, Initial residual = 9.89188e-06, Final residual = 9.89188e-06, No Iterations 0
magnetic flux divergence error = 8.43563e-10
smoothSolver:  Solving for Bx, Initial residual = 5.45706e-06, Final residual = 5.45706e-06, No Iterations 0
smoothSolver:  Solving for By, Initial residual = 8.34834e-06, Final residual = 8.34834e-06, No Iterations 0
DICPCG:  Solving for pB, Initial residual = 9.89188e-06, Final residual = 9.89188e-06, No Iterations 0
magnetic flux divergence error = 8.43563e-10
Time = 0.105

Courant Number mean: 0.0250894 max: 0.0380023
smoothSolver:  Solving for Ux, Initial residual = 0.024078, Final residual = 5.52173e-06, No Iterations 10
smoothSolver:  Solving for Uy, Initial residual = 0.0550265, Final residual = 5.80205e-06, No Iterations 11
DICPCG:  Solving for p, Initial residual = 0.00263623, Final residual = 9.69277e-05, No Iterations 75
time step continuity errors : sum local = 1.11284e-07, global = 1.02466e-09, cumulative = 1.92185e-07
DICPCG:  Solving for p, Initial residual = 0.00168154, Final residual = 4.37339e-05, No Iterations 78
time step continuity errors : sum local = 4.76573e-08, global = 1.84354e-10, cumulative = 1.92369e-07
DICPCG:  Solving for p, Initial residual = 0.000138282, Final residual = 5.57591e-07, No Iterations 83
time step continuity errors : sum local = 6.33275e-10, global = 2.42815e-12, cumulative = 1.92371e-07
smoothSolver:  Solving for Bx, Initial residual = 0.00535983, Final residual = 9.32039e-06, No Iterations 7
smoothSolver:  Solving for By, Initial residual = 0.00812546, Final residual = 5.72736e-06, No Iterations 9
DICPCG:  Solving for pB, Initial residual = 0.0340557, Final residual = 8.27327e-06, No Iterations 29
magnetic flux divergence error = 7.06529e-10
smoothSolver:  Solving for Bx, Initial residual = 9.36613e-06, Final residual = 9.36613e-06, No Iterations 0
smoothSolver:  Solving for By, Initial residual = 7.90765e-06, Final residual = 7.90765e-06, No Iterations 0
DICPCG:  Solving for pB, Initial residual = 8.26159e-06, Final residual = 8.26159e-06, No Iterations 0
magnetic flux divergence error = 7.06529e-10
smoothSolver:  Solving for Bx, Initial residual = 9.36613e-06, Final residual = 9.36613e-06, No Iterations 0
smoothSolver:  Solving for By, Initial residual = 7.90765e-06, Final residual = 7.90765e-06, No Iterations 0
DICPCG:  Solving for pB, Initial residual = 8.26159e-06, Final residual = 8.26159e-06, No Iterations 0
magnetic flux divergence error = 7.06529e-10
Time = 0.11

Courant Number mean: 0.0250892 max: 0.0380182
smoothSolver:  Solving for Ux, Initial residual = 0.0198695, Final residual = 9.91369e-06, No Iterations 9
smoothSolver:  Solving for Uy, Initial residual = 0.0514822, Final residual = 5.20913e-06, No Iterations 11
DICPCG:  Solving for p, Initial residual = 0.00265745, Final residual = 0.000116232, No Iterations 76
time step continuity errors : sum local = 1.31824e-07, global = -9.97816e-10, cumulative = 1.91373e-07
DICPCG:  Solving for p, Initial residual = 0.00159458, Final residual = 7.74843e-05, No Iterations 77
time step continuity errors : sum local = 8.32475e-08, global = 1.06244e-09, cumulative = 1.92436e-07
DICPCG:  Solving for p, Initial residual = 0.000155138, Final residual = 9.27464e-07, No Iterations 83
time step continuity errors : sum local = 1.04021e-09, global = 1.01474e-11, cumulative = 1.92446e-07
smoothSolver:  Solving for Bx, Initial residual = 0.00526127, Final residual = 9.09899e-06, No Iterations 7
smoothSolver:  Solving for By, Initial residual = 0.00785857, Final residual = 5.82614e-06, No Iterations 9
DICPCG:  Solving for pB, Initial residual = 0.0289798, Final residual = 8.44544e-06, No Iterations 28
magnetic flux divergence error = 7.2403e-10
smoothSolver:  Solving for Bx, Initial residual = 9.11897e-06, Final residual = 9.11897e-06, No Iterations 0
smoothSolver:  Solving for By, Initial residual = 7.53891e-06, Final residual = 7.53891e-06, No Iterations 0
DICPCG:  Solving for pB, Initial residual = 8.42475e-06, Final residual = 8.42475e-06, No Iterations 0
magnetic flux divergence error = 7.2403e-10
smoothSolver:  Solving for Bx, Initial residual = 9.11897e-06, Final residual = 9.11897e-06, No Iterations 0
smoothSolver:  Solving for By, Initial residual = 7.53891e-06, Final residual = 7.53891e-06, No Iterations 0
DICPCG:  Solving for pB, Initial residual = 8.42475e-06, Final residual = 8.42475e-06, No Iterations 0
magnetic flux divergence error = 7.2403e-10
Time = 0.115

Courant Number mean: 0.0250954 max: 0.0380489
smoothSolver:  Solving for Ux, Initial residual = 0.0147206, Final residual = 6.93785e-06, No Iterations 9
smoothSolver:  Solving for Uy, Initial residual = 0.0440822, Final residual = 9.54028e-06, No Iterations 10
DICPCG:  Solving for p, Initial residual = 0.00253263, Final residual = 9.7087e-05, No Iterations 77
time step continuity errors : sum local = 1.08745e-07, global = 2.19231e-11, cumulative = 1.92468e-07
DICPCG:  Solving for p, Initial residual = 0.00154199, Final residual = 5.5583e-05, No Iterations 78
time step continuity errors : sum local = 5.92984e-08, global = 3.9751e-10, cumulative = 1.92866e-07
DICPCG:  Solving for p, Initial residual = 0.000134015, Final residual = 9.59359e-07, No Iterations 83
time step continuity errors : sum local = 1.06389e-09, global = 1.36617e-11, cumulative = 1.92879e-07
smoothSolver:  Solving for Bx, Initial residual = 0.0049459, Final residual = 9.74408e-06, No Iterations 7
smoothSolver:  Solving for By, Initial residual = 0.00764825, Final residual = 5.8763e-06, No Iterations 9
DICPCG:  Solving for pB, Initial residual = 0.024781, Final residual = 9.91768e-06, No Iterations 27
magnetic flux divergence error = 8.54285e-10
smoothSolver:  Solving for Bx, Initial residual = 9.75209e-06, Final residual = 9.75209e-06, No Iterations 0
smoothSolver:  Solving for By, Initial residual = 7.15831e-06, Final residual = 7.15831e-06, No Iterations 0
DICPCG:  Solving for pB, Initial residual = 9.89507e-06, Final residual = 9.89507e-06, No Iterations 0
magnetic flux divergence error = 8.54285e-10
smoothSolver:  Solving for Bx, Initial residual = 9.75209e-06, Final residual = 9.75209e-06, No Iterations 0
smoothSolver:  Solving for By, Initial residual = 7.15831e-06, Final residual = 7.15831e-06, No Iterations 0
DICPCG:  Solving for pB, Initial residual = 9.89507e-06, Final residual = 9.89507e-06, No Iterations 0
magnetic flux divergence error = 8.54285e-10
Time = 0.12

Courant Number mean: 0.025102 max: 0.0380825
smoothSolver:  Solving for Ux, Initial residual = 0.00960901, Final residual = 9.35745e-06, No Iterations 8
smoothSolver:  Solving for Uy, Initial residual = 0.0342775, Final residual = 6.88696e-06, No Iterations 10
DICPCG:  Solving for p, Initial residual = 0.00225577, Final residual = 6.99009e-05, No Iterations 77
time step continuity errors : sum local = 7.74324e-08, global = 3.94033e-11, cumulative = 1.92919e-07
DICPCG:  Solving for p, Initial residual = 0.00138392, Final residual = 6.52009e-05, No Iterations 77
time step continuity errors : sum local = 6.95125e-08, global = 8.21959e-11, cumulative = 1.93001e-07
DICPCG:  Solving for p, Initial residual = 0.000135584, Final residual = 8.05216e-07, No Iterations 84
time step continuity errors : sum local = 8.85047e-10, global = -7.02207e-13, cumulative = 1.93e-07
smoothSolver:  Solving for Bx, Initial residual = 0.00436355, Final residual = 4.68143e-06, No Iterations 8
smoothSolver:  Solving for By, Initial residual = 0.00736096, Final residual = 5.85184e-06, No Iterations 9
DICPCG:  Solving for pB, Initial residual = 0.0212163, Final residual = 9.5934e-06, No Iterations 28
magnetic flux divergence error = 8.30739e-10
smoothSolver:  Solving for Bx, Initial residual = 4.70962e-06, Final residual = 4.70962e-06, No Iterations 0
smoothSolver:  Solving for By, Initial residual = 6.7733e-06, Final residual = 6.7733e-06, No Iterations 0
DICPCG:  Solving for pB, Initial residual = 9.56465e-06, Final residual = 9.56465e-06, No Iterations 0
magnetic flux divergence error = 8.30739e-10
smoothSolver:  Solving for Bx, Initial residual = 4.70962e-06, Final residual = 4.70962e-06, No Iterations 0
smoothSolver:  Solving for By, Initial residual = 6.7733e-06, Final residual = 6.7733e-06, No Iterations 0
DICPCG:  Solving for pB, Initial residual = 9.56465e-06, Final residual = 9.56465e-06, No Iterations 0
magnetic flux divergence error = 8.30739e-10
Time = 0.125

Courant Number mean: 0.0251061 max: 0.0381106
smoothSolver:  Solving for Ux, Initial residual = 0.00540336, Final residual = 9.93541e-06, No Iterations 7
smoothSolver:  Solving for Uy, Initial residual = 0.0241802, Final residual = 4.59913e-06, No Iterations 10
DICPCG:  Solving for p, Initial residual = 0.00181627, Final residual = 7.16477e-05, No Iterations 77
time step continuity errors : sum local = 7.86922e-08, global = 2.97487e-10, cumulative = 1.93298e-07
DICPCG:  Solving for p, Initial residual = 0.0011996, Final residual = 5.75006e-05, No Iterations 77
time step continuity errors : sum local = 6.15498e-08, global = 1.68006e-11, cumulative = 1.93314e-07
DICPCG:  Solving for p, Initial residual = 0.000118885, Final residual = 9.38122e-07, No Iterations 83
time step continuity errors : sum local = 1.02495e-09, global = -1.38943e-12, cumulative = 1.93313e-07
smoothSolver:  Solving for Bx, Initial residual = 0.0036246, Final residual = 4.81539e-06, No Iterations 8
smoothSolver:  Solving for By, Initial residual = 0.00697608, Final residual = 5.75337e-06, No Iterations 9
DICPCG:  Solving for pB, Initial residual = 0.018176, Final residual = 9.28739e-06, No Iterations 59
magnetic flux divergence error = 8.09068e-10
smoothSolver:  Solving for Bx, Initial residual = 4.82806e-06, Final residual = 4.82806e-06, No Iterations 0
smoothSolver:  Solving for By, Initial residual = 6.39885e-06, Final residual = 6.39885e-06, No Iterations 0
DICPCG:  Solving for pB, Initial residual = 9.2598e-06, Final residual = 9.2598e-06, No Iterations 0
magnetic flux divergence error = 8.09068e-10
smoothSolver:  Solving for Bx, Initial residual = 4.82806e-06, Final residual = 4.82806e-06, No Iterations 0
smoothSolver:  Solving for By, Initial residual = 6.39885e-06, Final residual = 6.39885e-06, No Iterations 0
DICPCG:  Solving for pB, Initial residual = 9.2598e-06, Final residual = 9.2598e-06, No Iterations 0
magnetic flux divergence error = 8.09068e-10
Time = 0.13

Courant Number mean: 0.0251074 max: 0.0381287
smoothSolver:  Solving for Ux, Initial residual = 0.00434878, Final residual = 8.6153e-06, No Iterations 7
smoothSolver:  Solving for Uy, Initial residual = 0.0153545, Final residual = 6.22233e-06, No Iterations 9
DICPCG:  Solving for p, Initial residual = 0.0013566, Final residual = 6.3178e-05, No Iterations 76
time step continuity errors : sum local = 6.89982e-08, global = 9.01686e-11, cumulative = 1.93403e-07
DICPCG:  Solving for p, Initial residual = 0.000995243, Final residual = 4.81284e-05, No Iterations 77
time step continuity errors : sum local = 5.18596e-08, global = 9.5061e-10, cumulative = 1.94354e-07
DICPCG:  Solving for p, Initial residual = 8.3958e-05, Final residual = 7.2808e-07, No Iterations 82
time step continuity errors : sum local = 7.9297e-10, global = -6.85909e-13, cumulative = 1.94353e-07
smoothSolver:  Solving for Bx, Initial residual = 0.00284893, Final residual = 9.67078e-06, No Iterations 7
smoothSolver:  Solving for By, Initial residual = 0.00652213, Final residual = 5.59098e-06, No Iterations 9
DICPCG:  Solving for pB, Initial residual = 0.0156258, Final residual = 8.25592e-06, No Iterations 26
magnetic flux divergence error = 7.23511e-10
smoothSolver:  Solving for Bx, Initial residual = 9.65771e-06, Final residual = 9.65771e-06, No Iterations 0
smoothSolver:  Solving for By, Initial residual = 6.03103e-06, Final residual = 6.03103e-06, No Iterations 0
DICPCG:  Solving for pB, Initial residual = 8.23138e-06, Final residual = 8.23138e-06, No Iterations 0
magnetic flux divergence error = 7.23511e-10
smoothSolver:  Solving for Bx, Initial residual = 9.65771e-06, Final residual = 9.65771e-06, No Iterations 0
smoothSolver:  Solving for By, Initial residual = 6.03103e-06, Final residual = 6.03103e-06, No Iterations 0
DICPCG:  Solving for pB, Initial residual = 8.23138e-06, Final residual = 8.23138e-06, No Iterations 0
magnetic flux divergence error = 7.23511e-10
Time = 0.135

Courant Number mean: 0.0251067 max: 0.0381358
smoothSolver:  Solving for Ux, Initial residual = 0.00468945, Final residual = 5.73472e-06, No Iterations 8
smoothSolver:  Solving for Uy, Initial residual = 0.0106101, Final residual = 9.30319e-06, No Iterations 8
DICPCG:  Solving for p, Initial residual = 0.00104495, Final residual = 3.54757e-05, No Iterations 71
time step continuity errors : sum local = 3.86341e-08, global = 1.30182e-09, cumulative = 1.95655e-07
DICPCG:  Solving for p, Initial residual = 0.000769004, Final residual = 3.16302e-05, No Iterations 72
time step continuity errors : sum local = 3.43437e-08, global = -7.14837e-10, cumulative = 1.9494e-07
DICPCG:  Solving for p, Initial residual = 5.63525e-05, Final residual = 9.68761e-07, No Iterations 81
time step continuity errors : sum local = 1.05435e-09, global = -7.16513e-12, cumulative = 1.94933e-07
smoothSolver:  Solving for Bx, Initial residual = 0.00215199, Final residual = 7.8406e-06, No Iterations 7
smoothSolver:  Solving for By, Initial residual = 0.00609245, Final residual = 5.38362e-06, No Iterations 9
DICPCG:  Solving for pB, Initial residual = 0.013697, Final residual = 9.69315e-06, No Iterations 25
magnetic flux divergence error = 8.55136e-10
smoothSolver:  Solving for Bx, Initial residual = 7.82681e-06, Final residual = 7.82681e-06, No Iterations 0
smoothSolver:  Solving for By, Initial residual = 5.66643e-06, Final residual = 5.66643e-06, No Iterations 0
DICPCG:  Solving for pB, Initial residual = 9.65768e-06, Final residual = 9.65768e-06, No Iterations 0
magnetic flux divergence error = 8.55136e-10
smoothSolver:  Solving for Bx, Initial residual = 7.82681e-06, Final residual = 7.82681e-06, No Iterations 0
smoothSolver:  Solving for By, Initial residual = 5.66643e-06, Final residual = 5.66643e-06, No Iterations 0
DICPCG:  Solving for pB, Initial residual = 9.65768e-06, Final residual = 9.65768e-06, No Iterations 0
magnetic flux divergence error = 8.55136e-10
Time = 0.14

Courant Number mean: 0.0251044 max: 0.038133
smoothSolver:  Solving for Ux, Initial residual = 0.00532536, Final residual = 6.92453e-06, No Iterations 8
smoothSolver:  Solving for Uy, Initial residual = 0.0102822, Final residual = 4.96365e-06, No Iterations 9
DICPCG:  Solving for p, Initial residual = 0.000802158, Final residual = 2.98401e-05, No Iterations 78
time step continuity errors : sum local = 3.24833e-08, global = -3.37642e-10, cumulative = 1.94595e-07
DICPCG:  Solving for p, Initial residual = 0.000574951, Final residual = 2.06553e-05, No Iterations 78
time step continuity errors : sum local = 2.25899e-08, global = 2.20675e-10, cumulative = 1.94816e-07
DICPCG:  Solving for p, Initial residual = 5.13207e-05, Final residual = 8.41886e-07, No Iterations 80
time step continuity errors : sum local = 9.17399e-10, global = 1.33025e-11, cumulative = 1.94829e-07
smoothSolver:  Solving for Bx, Initial residual = 0.00167908, Final residual = 5.62248e-06, No Iterations 7
smoothSolver:  Solving for By, Initial residual = 0.005793, Final residual = 5.1515e-06, No Iterations 9
DICPCG:  Solving for pB, Initial residual = 0.0127696, Final residual = 9.50827e-06, No Iterations 25
magnetic flux divergence error = 8.45789e-10
smoothSolver:  Solving for Bx, Initial residual = 5.61467e-06, Final residual = 5.61467e-06, No Iterations 0
smoothSolver:  Solving for By, Initial residual = 5.3149e-06, Final residual = 5.3149e-06, No Iterations 0
DICPCG:  Solving for pB, Initial residual = 9.46482e-06, Final residual = 9.46482e-06, No Iterations 0
magnetic flux divergence error = 8.45789e-10
smoothSolver:  Solving for Bx, Initial residual = 5.61467e-06, Final residual = 5.61467e-06, No Iterations 0
smoothSolver:  Solving for By, Initial residual = 5.3149e-06, Final residual = 5.3149e-06, No Iterations 0
DICPCG:  Solving for pB, Initial residual = 9.46482e-06, Final residual = 9.46482e-06, No Iterations 0
magnetic flux divergence error = 8.45789e-10
Time = 0.145

Courant Number mean: 0.0251014 max: 0.0381226
smoothSolver:  Solving for Ux, Initial residual = 0.0057363, Final residual = 7.11593e-06, No Iterations 8
smoothSolver:  Solving for Uy, Initial residual = 0.0119984, Final residual = 6.11368e-06, No Iterations 9
DICPCG:  Solving for p, Initial residual = 0.000691618, Final residual = 2.76494e-05, No Iterations 78
time step continuity errors : sum local = 3.01375e-08, global = -2.35602e-10, cumulative = 1.94594e-07
DICPCG:  Solving for p, Initial residual = 0.000458902, Final residual = 1.7636e-05, No Iterations 78
time step continuity errors : sum local = 1.94131e-08, global = 1.53347e-10, cumulative = 1.94747e-07
DICPCG:  Solving for p, Initial residual = 4.7367e-05, Final residual = 9.91048e-07, No Iterations 80
time step continuity errors : sum local = 1.08249e-09, global = 2.0401e-11, cumulative = 1.94767e-07
smoothSolver:  Solving for Bx, Initial residual = 0.00122421, Final residual = 7.59576e-06, No Iterations 6
smoothSolver:  Solving for By, Initial residual = 0.00562741, Final residual = 4.9126e-06, No Iterations 9
DICPCG:  Solving for pB, Initial residual = 0.0124927, Final residual = 9.70907e-06, No Iterations 25
magnetic flux divergence error = 8.7222e-10
smoothSolver:  Solving for Bx, Initial residual = 7.58113e-06, Final residual = 7.58113e-06, No Iterations 0
smoothSolver:  Solving for By, Initial residual = 4.99993e-06, Final residual = 4.99993e-06, No Iterations 0
DICPCG:  Solving for pB, Initial residual = 9.65809e-06, Final residual = 9.65809e-06, No Iterations 0
magnetic flux divergence error = 8.7222e-10
smoothSolver:  Solving for Bx, Initial residual = 7.58113e-06, Final residual = 7.58113e-06, No Iterations 0
smoothSolver:  Solving for By, Initial residual = 4.99993e-06, Final residual = 4.99993e-06, No Iterations 0
DICPCG:  Solving for pB, Initial residual = 9.65809e-06, Final residual = 9.65809e-06, No Iterations 0
magnetic flux divergence error = 8.7222e-10
Time = 0.15

Courant Number mean: 0.0250981 max: 0.0381074
smoothSolver:  Solving for Ux, Initial residual = 0.005441, Final residual = 6.5115e-06, No Iterations 8
smoothSolver:  Solving for Uy, Initial residual = 0.0126186, Final residual = 6.56744e-06, No Iterations 9
DICPCG:  Solving for p, Initial residual = 0.000645322, Final residual = 2.26632e-05, No Iterations 78
time step continuity errors : sum local = 2.47627e-08, global = -1.22366e-10, cumulative = 1.94645e-07
DICPCG:  Solving for p, Initial residual = 0.000391306, Final residual = 1.42946e-05, No Iterations 78
time step continuity errors : sum local = 1.58102e-08, global = 8.00244e-11, cumulative = 1.94725e-07
DICPCG:  Solving for p, Initial residual = 4.24502e-05, Final residual = 9.70432e-07, No Iterations 81
time step continuity errors : sum local = 1.06306e-09, global = 6.97357e-12, cumulative = 1.94732e-07
smoothSolver:  Solving for Bx, Initial residual = 0.00109082, Final residual = 4.71337e-06, No Iterations 6
smoothSolver:  Solving for By, Initial residual = 0.00545842, Final residual = 4.68033e-06, No Iterations 9
DICPCG:  Solving for pB, Initial residual = 0.0124846, Final residual = 8.65677e-06, No Iterations 26
magnetic flux divergence error = 7.86531e-10
smoothSolver:  Solving for Bx, Initial residual = 4.70647e-06, Final residual = 4.70647e-06, No Iterations 0
smoothSolver:  Solving for By, Initial residual = 4.72057e-06, Final residual = 4.72057e-06, No Iterations 0
DICPCG:  Solving for pB, Initial residual = 8.60492e-06, Final residual = 8.60492e-06, No Iterations 0
magnetic flux divergence error = 7.86531e-10
smoothSolver:  Solving for Bx, Initial residual = 4.70647e-06, Final residual = 4.70647e-06, No Iterations 0
smoothSolver:  Solving for By, Initial residual = 4.72057e-06, Final residual = 4.72057e-06, No Iterations 0
DICPCG:  Solving for pB, Initial residual = 8.60492e-06, Final residual = 8.60492e-06, No Iterations 0
magnetic flux divergence error = 7.86531e-10
Time = 0.155

Courant Number mean: 0.0250953 max: 0.0380898
smoothSolver:  Solving for Ux, Initial residual = 0.00463062, Final residual = 5.37257e-06, No Iterations 8
smoothSolver:  Solving for Uy, Initial residual = 0.0122663, Final residual = 6.22655e-06, No Iterations 9
DICPCG:  Solving for p, Initial residual = 0.000645135, Final residual = 2.04942e-05, No Iterations 78
time step continuity errors : sum local = 2.24583e-08, global = 2.44275e-11, cumulative = 1.94756e-07
DICPCG:  Solving for p, Initial residual = 0.000365682, Final residual = 1.44379e-05, No Iterations 78
time step continuity errors : sum local = 1.60192e-08, global = -1.75378e-11, cumulative = 1.94739e-07
DICPCG:  Solving for p, Initial residual = 4.13715e-05, Final residual = 5.61389e-07, No Iterations 82
time step continuity errors : sum local = 6.16794e-10, global = -1.9856e-12, cumulative = 1.94737e-07
smoothSolver:  Solving for Bx, Initial residual = 0.00108676, Final residual = 4.36697e-06, No Iterations 6
smoothSolver:  Solving for By, Initial residual = 0.00526876, Final residual = 9.76383e-06, No Iterations 8
DICPCG:  Solving for pB, Initial residual = 0.0125029, Final residual = 8.91946e-06, No Iterations 26
magnetic flux divergence error = 8.20805e-10
smoothSolver:  Solving for Bx, Initial residual = 4.36626e-06, Final residual = 4.36626e-06, No Iterations 0
smoothSolver:  Solving for By, Initial residual = 9.66e-06, Final residual = 9.66e-06, No Iterations 0
DICPCG:  Solving for pB, Initial residual = 8.85984e-06, Final residual = 8.85984e-06, No Iterations 0
magnetic flux divergence error = 8.20805e-10
smoothSolver:  Solving for Bx, Initial residual = 4.36626e-06, Final residual = 4.36626e-06, No Iterations 0
smoothSolver:  Solving for By, Initial residual = 9.66e-06, Final residual = 9.66e-06, No Iterations 0
DICPCG:  Solving for pB, Initial residual = 8.85984e-06, Final residual = 8.85984e-06, No Iterations 0
magnetic flux divergence error = 8.20805e-10
Time = 0.16

Courant Number mean: 0.0250936 max: 0.0380721
smoothSolver:  Solving for Ux, Initial residual = 0.00356746, Final residual = 9.03679e-06, No Iterations 7
smoothSolver:  Solving for Uy, Initial residual = 0.011243, Final residual = 5.50314e-06, No Iterations 9
DICPCG:  Solving for p, Initial residual = 0.000621384, Final residual = 2.32387e-05, No Iterations 78
time step continuity errors : sum local = 2.55407e-08, global = 1.02956e-11, cumulative = 1.94747e-07
DICPCG:  Solving for p, Initial residual = 0.000356439, Final residual = 1.42157e-05, No Iterations 80
time step continuity errors : sum local = 1.57982e-08, global = 6.44737e-12, cumulative = 1.94754e-07
DICPCG:  Solving for p, Initial residual = 3.36122e-05, Final residual = 8.60184e-07, No Iterations 81
time step continuity errors : sum local = 9.47589e-10, global = 1.87191e-11, cumulative = 1.94772e-07
smoothSolver:  Solving for Bx, Initial residual = 0.00105947, Final residual = 4.65321e-06, No Iterations 6
smoothSolver:  Solving for By, Initial residual = 0.00506842, Final residual = 9.3414e-06, No Iterations 8
DICPCG:  Solving for pB, Initial residual = 0.0123992, Final residual = 9.37624e-06, No Iterations 26
magnetic flux divergence error = 8.74985e-10
smoothSolver:  Solving for Bx, Initial residual = 4.65937e-06, Final residual = 4.65937e-06, No Iterations 0
smoothSolver:  Solving for By, Initial residual = 9.2726e-06, Final residual = 9.2726e-06, No Iterations 0
DICPCG:  Solving for pB, Initial residual = 9.3088e-06, Final residual = 9.3088e-06, No Iterations 0
magnetic flux divergence error = 8.74985e-10
smoothSolver:  Solving for Bx, Initial residual = 4.65937e-06, Final residual = 4.65937e-06, No Iterations 0
smoothSolver:  Solving for By, Initial residual = 9.2726e-06, Final residual = 9.2726e-06, No Iterations 0
DICPCG:  Solving for pB, Initial residual = 9.3088e-06, Final residual = 9.3088e-06, No Iterations 0
magnetic flux divergence error = 8.74985e-10
Time = 0.165

Courant Number mean: 0.0250925 max: 0.0380555
smoothSolver:  Solving for Ux, Initial residual = 0.00246233, Final residual = 5.84248e-06, No Iterations 7
smoothSolver:  Solving for Uy, Initial residual = 0.00940226, Final residual = 9.81234e-06, No Iterations 8
DICPCG:  Solving for p, Initial residual = 0.000563469, Final residual = 1.9076e-05, No Iterations 78
time step continuity errors : sum local = 2.10201e-08, global = -5.95526e-11, cumulative = 1.94713e-07
DICPCG:  Solving for p, Initial residual = 0.000330755, Final residual = 1.39812e-05, No Iterations 78
time step continuity errors : sum local = 1.55441e-08, global = 1.39778e-11, cumulative = 1.94727e-07
DICPCG:  Solving for p, Initial residual = 3.64449e-05, Final residual = 5.35376e-07, No Iterations 82
time step continuity errors : sum local = 5.91037e-10, global = 2.19974e-13, cumulative = 1.94727e-07
smoothSolver:  Solving for Bx, Initial residual = 0.000976261, Final residual = 4.95211e-06, No Iterations 6
smoothSolver:  Solving for By, Initial residual = 0.00486634, Final residual = 8.96764e-06, No Iterations 8
DICPCG:  Solving for pB, Initial residual = 0.0121362, Final residual = 9.6673e-06, No Iterations 26
magnetic flux divergence error = 9.15625e-10
smoothSolver:  Solving for Bx, Initial residual = 4.96497e-06, Final residual = 4.96497e-06, No Iterations 0
smoothSolver:  Solving for By, Initial residual = 8.92704e-06, Final residual = 8.92704e-06, No Iterations 0
DICPCG:  Solving for pB, Initial residual = 9.59454e-06, Final residual = 9.59454e-06, No Iterations 0
magnetic flux divergence error = 9.15625e-10
smoothSolver:  Solving for Bx, Initial residual = 4.96497e-06, Final residual = 4.96497e-06, No Iterations 0
smoothSolver:  Solving for By, Initial residual = 8.92704e-06, Final residual = 8.92704e-06, No Iterations 0
DICPCG:  Solving for pB, Initial residual = 9.59454e-06, Final residual = 9.59454e-06, No Iterations 0
magnetic flux divergence error = 9.15625e-10
Time = 0.17

Courant Number mean: 0.0250919 max: 0.0380411
smoothSolver:  Solving for Ux, Initial residual = 0.00148904, Final residual = 7.08652e-06, No Iterations 6
smoothSolver:  Solving for Uy, Initial residual = 0.0073047, Final residual = 7.54126e-06, No Iterations 8
DICPCG:  Solving for p, Initial residual = 0.00047159, Final residual = 2.16922e-05, No Iterations 78
time step continuity errors : sum local = 2.39521e-08, global = -9.22829e-11, cumulative = 1.94635e-07
DICPCG:  Solving for p, Initial residual = 0.00028925, Final residual = 8.30423e-06, No Iterations 81
time step continuity errors : sum local = 9.22736e-09, global = -9.05239e-11, cumulative = 1.94544e-07
DICPCG:  Solving for p, Initial residual = 2.45887e-05, Final residual = 6.43959e-07, No Iterations 81
time step continuity errors : sum local = 7.11986e-10, global = 1.18907e-11, cumulative = 1.94556e-07
smoothSolver:  Solving for Bx, Initial residual = 0.000845095, Final residual = 5.10572e-06, No Iterations 6
smoothSolver:  Solving for By, Initial residual = 0.00466981, Final residual = 8.64237e-06, No Iterations 8
DICPCG:  Solving for pB, Initial residual = 0.0117277, Final residual = 9.8968e-06, No Iterations 26
magnetic flux divergence error = 9.51869e-10
smoothSolver:  Solving for Bx, Initial residual = 5.12416e-06, Final residual = 5.12416e-06, No Iterations 0
smoothSolver:  Solving for By, Initial residual = 8.62843e-06, Final residual = 8.62843e-06, No Iterations 0
DICPCG:  Solving for pB, Initial residual = 9.82047e-06, Final residual = 9.82047e-06, No Iterations 0
magnetic flux divergence error = 9.51869e-10
smoothSolver:  Solving for Bx, Initial residual = 5.12416e-06, Final residual = 5.12416e-06, No Iterations 0
smoothSolver:  Solving for By, Initial residual = 8.62843e-06, Final residual = 8.62843e-06, No Iterations 0
DICPCG:  Solving for pB, Initial residual = 9.82047e-06, Final residual = 9.82047e-06, No Iterations 0
magnetic flux divergence error = 9.51869e-10
Time = 0.175

Courant Number mean: 0.0250915 max: 0.0380292
smoothSolver:  Solving for Ux, Initial residual = 0.00093259, Final residual = 8.26248e-06, No Iterations 5
smoothSolver:  Solving for Uy, Initial residual = 0.00511066, Final residual = 5.01475e-06, No Iterations 8
DICPCG:  Solving for p, Initial residual = 0.000366618, Final residual = 1.45505e-05, No Iterations 78
time step continuity errors : sum local = 1.60895e-08, global = -1.04109e-10, cumulative = 1.94452e-07
DICPCG:  Solving for p, Initial residual = 0.000247081, Final residual = 9.21613e-06, No Iterations 78
time step continuity errors : sum local = 1.02287e-08, global = 5.68692e-11, cumulative = 1.94509e-07
DICPCG:  Solving for p, Initial residual = 2.4737e-05, Final residual = 9.21557e-07, No Iterations 16
time step continuity errors : sum local = 1.01982e-09, global = 1.1276e-10, cumulative = 1.94622e-07
smoothSolver:  Solving for Bx, Initial residual = 0.000688981, Final residual = 4.90762e-06, No Iterations 6
smoothSolver:  Solving for By, Initial residual = 0.00448421, Final residual = 8.36116e-06, No Iterations 8
DICPCG:  Solving for pB, Initial residual = 0.0112094, Final residual = 8.42341e-06, No Iterations 27
magnetic flux divergence error = 8.22852e-10
smoothSolver:  Solving for Bx, Initial residual = 4.92595e-06, Final residual = 4.92595e-06, No Iterations 0
smoothSolver:  Solving for By, Initial residual = 8.37114e-06, Final residual = 8.37114e-06, No Iterations 0
DICPCG:  Solving for pB, Initial residual = 8.35845e-06, Final residual = 8.35845e-06, No Iterations 0
magnetic flux divergence error = 8.22852e-10
smoothSolver:  Solving for Bx, Initial residual = 4.92595e-06, Final residual = 4.92595e-06, No Iterations 0
smoothSolver:  Solving for By, Initial residual = 8.37114e-06, Final residual = 8.37114e-06, No Iterations 0
DICPCG:  Solving for pB, Initial residual = 8.35845e-06, Final residual = 8.35845e-06, No Iterations 0
magnetic flux divergence error = 8.22852e-10
Time = 0.18

Courant Number mean: 0.0250912 max: 0.0380199
smoothSolver:  Solving for Ux, Initial residual = 0.000972517, Final residual = 5.61166e-06, No Iterations 6
smoothSolver:  Solving for Uy, Initial residual = 0.00352468, Final residual = 8.11438e-06, No Iterations 7
DICPCG:  Solving for p, Initial residual = 0.000282597, Final residual = 1.33098e-05, No Iterations 78
time step continuity errors : sum local = 1.47301e-08, global = -1.27582e-10, cumulative = 1.94494e-07
DICPCG:  Solving for p, Initial residual = 0.000201963, Final residual = 9.65779e-06, No Iterations 78
time step continuity errors : sum local = 1.07029e-08, global = 7.37659e-11, cumulative = 1.94568e-07
DICPCG:  Solving for p, Initial residual = 2.37565e-05, Final residual = 9.4713e-07, No Iterations 12
time step continuity errors : sum local = 1.04849e-09, global = 7.09469e-11, cumulative = 1.94639e-07
smoothSolver:  Solving for Bx, Initial residual = 0.000532125, Final residual = 9.38959e-06, No Iterations 5
smoothSolver:  Solving for By, Initial residual = 0.00431285, Final residual = 8.11782e-06, No Iterations 8
DICPCG:  Solving for pB, Initial residual = 0.0106431, Final residual = 8.7981e-06, No Iterations 27
magnetic flux divergence error = 8.72772e-10
smoothSolver:  Solving for Bx, Initial residual = 9.4037e-06, Final residual = 9.4037e-06, No Iterations 0
smoothSolver:  Solving for By, Initial residual = 8.14198e-06, Final residual = 8.14198e-06, No Iterations 0
DICPCG:  Solving for pB, Initial residual = 8.73169e-06, Final residual = 8.73169e-06, No Iterations 0
magnetic flux divergence error = 8.72772e-10
smoothSolver:  Solving for Bx, Initial residual = 9.4037e-06, Final residual = 9.4037e-06, No Iterations 0
smoothSolver:  Solving for By, Initial residual = 8.14198e-06, Final residual = 8.14198e-06, No Iterations 0
DICPCG:  Solving for pB, Initial residual = 8.73169e-06, Final residual = 8.73169e-06, No Iterations 0
magnetic flux divergence error = 8.72772e-10
Time = 0.185

Courant Number mean: 0.0250912 max: 0.038013
smoothSolver:  Solving for Ux, Initial residual = 0.00109137, Final residual = 7.36935e-06, No Iterations 6
smoothSolver:  Solving for Uy, Initial residual = 0.00277685, Final residual = 7.11566e-06, No Iterations 7
DICPCG:  Solving for p, Initial residual = 0.000222579, Final residual = 1.08835e-05, No Iterations 69
time step continuity errors : sum local = 1.20484e-08, global = -3.59657e-10, cumulative = 1.94279e-07
DICPCG:  Solving for p, Initial residual = 0.000157672, Final residual = 7.38822e-06, No Iterations 46
time step continuity errors : sum local = 8.17661e-09, global = -6.91501e-10, cumulative = 1.93588e-07
DICPCG:  Solving for p, Initial residual = 1.63876e-05, Final residual = 6.1984e-07, No Iterations 78
time step continuity errors : sum local = 6.86011e-10, global = -7.59434e-12, cumulative = 1.9358e-07
smoothSolver:  Solving for Bx, Initial residual = 0.000414507, Final residual = 7.27724e-06, No Iterations 5
smoothSolver:  Solving for By, Initial residual = 0.00415924, Final residual = 7.90467e-06, No Iterations 8
DICPCG:  Solving for pB, Initial residual = 0.0100803, Final residual = 8.60651e-06, No Iterations 27
magnetic flux divergence error = 8.66678e-10
smoothSolver:  Solving for Bx, Initial residual = 7.29151e-06, Final residual = 7.29151e-06, No Iterations 0
smoothSolver:  Solving for By, Initial residual = 7.93674e-06, Final residual = 7.93674e-06, No Iterations 0
DICPCG:  Solving for pB, Initial residual = 8.54325e-06, Final residual = 8.54325e-06, No Iterations 0
magnetic flux divergence error = 8.66678e-10
smoothSolver:  Solving for Bx, Initial residual = 7.29151e-06, Final residual = 7.29151e-06, No Iterations 0
smoothSolver:  Solving for By, Initial residual = 7.93674e-06, Final residual = 7.93674e-06, No Iterations 0
DICPCG:  Solving for pB, Initial residual = 8.54325e-06, Final residual = 8.54325e-06, No Iterations 0
magnetic flux divergence error = 8.66678e-10
Time = 0.19

Courant Number mean: 0.0250911 max: 0.0380081
smoothSolver:  Solving for Ux, Initial residual = 0.0012282, Final residual = 8.09122e-06, No Iterations 6
smoothSolver:  Solving for Uy, Initial residual = 0.00279446, Final residual = 7.37604e-06, No Iterations 7
DICPCG:  Solving for p, Initial residual = 0.000178234, Final residual = 7.73643e-06, No Iterations 78
time step continuity errors : sum local = 8.56397e-09, global = -3.18409e-11, cumulative = 1.93548e-07
DICPCG:  Solving for p, Initial residual = 0.000120945, Final residual = 4.68842e-06, No Iterations 78
time step continuity errors : sum local = 5.17975e-09, global = 1.96845e-11, cumulative = 1.93568e-07
DICPCG:  Solving for p, Initial residual = 1.40473e-05, Final residual = 9.57029e-07, No Iterations 8
time step continuity errors : sum local = 1.05895e-09, global = -6.99544e-11, cumulative = 1.93498e-07
smoothSolver:  Solving for Bx, Initial residual = 0.000317378, Final residual = 4.93527e-06, No Iterations 5
smoothSolver:  Solving for By, Initial residual = 0.0040258, Final residual = 7.71503e-06, No Iterations 8
DICPCG:  Solving for pB, Initial residual = 0.00951344, Final residual = 8.48028e-06, No Iterations 27
magnetic flux divergence error = 8.66493e-10
smoothSolver:  Solving for Bx, Initial residual = 4.94806e-06, Final residual = 4.94806e-06, No Iterations 0
smoothSolver:  Solving for By, Initial residual = 7.74997e-06, Final residual = 7.74997e-06, No Iterations 0
DICPCG:  Solving for pB, Initial residual = 8.42e-06, Final residual = 8.42e-06, No Iterations 0
magnetic flux divergence error = 8.66493e-10
smoothSolver:  Solving for Bx, Initial residual = 4.94806e-06, Final residual = 4.94806e-06, No Iterations 0
smoothSolver:  Solving for By, Initial residual = 7.74997e-06, Final residual = 7.74997e-06, No Iterations 0
DICPCG:  Solving for pB, Initial residual = 8.42e-06, Final residual = 8.42e-06, No Iterations 0
magnetic flux divergence error = 8.66493e-10
Time = 0.195

Courant Number mean: 0.0250913 max: 0.0380048
smoothSolver:  Solving for Ux, Initial residual = 0.0012269, Final residual = 7.76634e-06, No Iterations 6
smoothSolver:  Solving for Uy, Initial residual = 0.00294055, Final residual = 8.0708e-06, No Iterations 7
DICPCG:  Solving for p, Initial residual = 0.000159393, Final residual = 5.8945e-06, No Iterations 78
time step continuity errors : sum local = 6.5218e-09, global = 1.11333e-12, cumulative = 1.93499e-07
DICPCG:  Solving for p, Initial residual = 0.000103473, Final residual = 3.16861e-06, No Iterations 78
time step continuity errors : sum local = 3.49787e-09, global = -1.88413e-13, cumulative = 1.93499e-07
DICPCG:  Solving for p, Initial residual = 1.11036e-05, Final residual = 9.65804e-07, No Iterations 7
time step continuity errors : sum local = 1.06807e-09, global = -7.63657e-11, cumulative = 1.93422e-07
smoothSolver:  Solving for Bx, Initial residual = 0.00025159, Final residual = 6.88657e-06, No Iterations 4
smoothSolver:  Solving for By, Initial residual = 0.00390933, Final residual = 7.54156e-06, No Iterations 8
DICPCG:  Solving for pB, Initial residual = 0.00895841, Final residual = 8.5876e-06, No Iterations 27
magnetic flux divergence error = 8.89857e-10
smoothSolver:  Solving for Bx, Initial residual = 6.89602e-06, Final residual = 6.89602e-06, No Iterations 0
smoothSolver:  Solving for By, Initial residual = 7.57695e-06, Final residual = 7.57695e-06, No Iterations 0
DICPCG:  Solving for pB, Initial residual = 8.52898e-06, Final residual = 8.52898e-06, No Iterations 0
magnetic flux divergence error = 8.89857e-10
smoothSolver:  Solving for Bx, Initial residual = 6.89602e-06, Final residual = 6.89602e-06, No Iterations 0
smoothSolver:  Solving for By, Initial residual = 7.57695e-06, Final residual = 7.57695e-06, No Iterations 0
DICPCG:  Solving for pB, Initial residual = 8.52898e-06, Final residual = 8.52898e-06, No Iterations 0
magnetic flux divergence error = 8.89857e-10
Time = 0.2

Courant Number mean: 0.0250916 max: 0.0380027
smoothSolver:  Solving for Ux, Initial residual = 0.00109944, Final residual = 6.70949e-06, No Iterations 6
smoothSolver:  Solving for Uy, Initial residual = 0.00283521, Final residual = 7.86835e-06, No Iterations 7
DICPCG:  Solving for p, Initial residual = 0.000154363, Final residual = 5.1964e-06, No Iterations 78
time step continuity errors : sum local = 5.74614e-09, global = 1.72328e-11, cumulative = 1.9344e-07
DICPCG:  Solving for p, Initial residual = 9.3072e-05, Final residual = 2.99693e-06, No Iterations 78
time step continuity errors : sum local = 3.3056e-09, global = -3.50719e-12, cumulative = 1.93436e-07
DICPCG:  Solving for p, Initial residual = 9.91095e-06, Final residual = 9.31047e-07, No Iterations 7
time step continuity errors : sum local = 1.029e-09, global = -7.08483e-11, cumulative = 1.93365e-07
smoothSolver:  Solving for Bx, Initial residual = 0.000244021, Final residual = 5.854e-06, No Iterations 4
smoothSolver:  Solving for By, Initial residual = 0.00380796, Final residual = 7.37854e-06, No Iterations 8
DICPCG:  Solving for pB, Initial residual = 0.00848479, Final residual = 9.53984e-06, No Iterations 26
magnetic flux divergence error = 1.00199e-09
smoothSolver:  Solving for Bx, Initial residual = 5.86312e-06, Final residual = 5.86312e-06, No Iterations 0
[...]
smoothSolver:  Solving for Ux, Initial residual = 8.99508e-07, Final residual = 8.99508e-07, No Iterations 0
smoothSolver:  Solving for Uy, Initial residual = 3.56365e-05, Final residual = 6.64265e-06, No Iterations 2
DICPCG:  Solving for p, Initial residual = 2.38695e-06, Final residual = 9.13104e-07, No Iterations 2
time step continuity errors : sum local = 1.00825e-09, global = -8.25716e-11, cumulative = 1.78564e-07
DICPCG:  Solving for p, Initial residual = 2.21293e-06, Final residual = 9.61415e-07, No Iterations 2
time step continuity errors : sum local = 1.06159e-09, global = -8.27417e-11, cumulative = 1.78481e-07
DICPCG:  Solving for p, Initial residual = 1.66426e-06, Final residual = 8.81627e-07, No Iterations 1
time step continuity errors : sum local = 9.73489e-10, global = -8.194e-11, cumulative = 1.78399e-07
smoothSolver:  Solving for Bx, Initial residual = 8.90193e-06, Final residual = 8.90193e-06, No Iterations 0
smoothSolver:  Solving for By, Initial residual = 5.01449e-05, Final residual = 4.84232e-06, No Iterations 3
DICPCG:  Solving for pB, Initial residual = 9.19666e-05, Final residual = 9.58181e-06, No Iterations 7
magnetic flux divergence error = 2.45725e-09
smoothSolver:  Solving for Bx, Initial residual = 8.90228e-06, Final residual = 8.90228e-06, No Iterations 0
smoothSolver:  Solving for By, Initial residual = 4.84182e-06, Final residual = 4.84182e-06, No Iterations 0
DICPCG:  Solving for pB, Initial residual = 9.58101e-06, Final residual = 9.58101e-06, No Iterations 0
magnetic flux divergence error = 2.45725e-09
smoothSolver:  Solving for Bx, Initial residual = 8.90228e-06, Final residual = 8.90228e-06, No Iterations 0
smoothSolver:  Solving for By, Initial residual = 4.84182e-06, Final residual = 4.84182e-06, No Iterations 0
DICPCG:  Solving for pB, Initial residual = 9.58101e-06, Final residual = 9.58101e-06, No Iterations 0
magnetic flux divergence error = 2.45725e-09
Time = 1.96

Courant Number mean: 0.0250924 max: 0.0379901
smoothSolver:  Solving for Ux, Initial residual = 9.13733e-07, Final residual = 9.13733e-07, No Iterations 0
smoothSolver:  Solving for Uy, Initial residual = 2.90758e-05, Final residual = 4.58776e-06, No Iterations 2
DICPCG:  Solving for p, Initial residual = 2.6049e-06, Final residual = 8.32894e-07, No Iterations 24
time step continuity errors : sum local = 9.19679e-10, global = -1.17413e-10, cumulative = 1.78282e-07
DICPCG:  Solving for p, Initial residual = 2.05897e-06, Final residual = 8.60699e-07, No Iterations 24
time step continuity errors : sum local = 9.50382e-10, global = -1.32445e-10, cumulative = 1.78149e-07
DICPCG:  Solving for p, Initial residual = 1.44757e-06, Final residual = 9.83188e-07, No Iterations 9
time step continuity errors : sum local = 1.08564e-09, global = -1.93339e-10, cumulative = 1.77956e-07
smoothSolver:  Solving for Bx, Initial residual = 8.91485e-06, Final residual = 8.91485e-06, No Iterations 0
smoothSolver:  Solving for By, Initial residual = 4.98185e-05, Final residual = 4.80945e-06, No Iterations 3
DICPCG:  Solving for pB, Initial residual = 9.20841e-05, Final residual = 6.40243e-06, No Iterations 8
magnetic flux divergence error = 1.64217e-09
smoothSolver:  Solving for Bx, Initial residual = 8.91492e-06, Final residual = 8.91492e-06, No Iterations 0
smoothSolver:  Solving for By, Initial residual = 4.80896e-06, Final residual = 4.80896e-06, No Iterations 0
DICPCG:  Solving for pB, Initial residual = 6.4019e-06, Final residual = 6.4019e-06, No Iterations 0
magnetic flux divergence error = 1.64217e-09
smoothSolver:  Solving for Bx, Initial residual = 8.91492e-06, Final residual = 8.91492e-06, No Iterations 0
smoothSolver:  Solving for By, Initial residual = 4.80896e-06, Final residual = 4.80896e-06, No Iterations 0
DICPCG:  Solving for pB, Initial residual = 6.4019e-06, Final residual = 6.4019e-06, No Iterations 0
magnetic flux divergence error = 1.64217e-09
Time = 1.965

Courant Number mean: 0.0250924 max: 0.0379902
smoothSolver:  Solving for Ux, Initial residual = 1.85333e-06, Final residual = 1.85333e-06, No Iterations 0
smoothSolver:  Solving for Uy, Initial residual = 4.69238e-05, Final residual = 8.86251e-06, No Iterations 2
DICPCG:  Solving for p, Initial residual = 2.95953e-06, Final residual = 8.79091e-07, No Iterations 11
time step continuity errors : sum local = 9.70693e-10, global = -1.26622e-10, cumulative = 1.77829e-07
DICPCG:  Solving for p, Initial residual = 2.13797e-06, Final residual = 5.31645e-07, No Iterations 6
time step continuity errors : sum local = 5.87044e-10, global = -1.04251e-10, cumulative = 1.77725e-07
DICPCG:  Solving for p, Initial residual = 9.10859e-07, Final residual = 9.10859e-07, No Iterations 0
time step continuity errors : sum local = 1.00577e-09, global = -8.6449e-11, cumulative = 1.77639e-07
smoothSolver:  Solving for Bx, Initial residual = 8.93524e-06, Final residual = 8.93524e-06, No Iterations 0
smoothSolver:  Solving for By, Initial residual = 4.93452e-05, Final residual = 4.76418e-06, No Iterations 3
DICPCG:  Solving for pB, Initial residual = 9.00632e-05, Final residual = 9.89685e-06, No Iterations 7
magnetic flux divergence error = 2.53888e-09
smoothSolver:  Solving for Bx, Initial residual = 8.93555e-06, Final residual = 8.93555e-06, No Iterations 0
smoothSolver:  Solving for By, Initial residual = 4.76371e-06, Final residual = 4.76371e-06, No Iterations 0
DICPCG:  Solving for pB, Initial residual = 9.89604e-06, Final residual = 9.89604e-06, No Iterations 0
magnetic flux divergence error = 2.53888e-09
smoothSolver:  Solving for Bx, Initial residual = 8.93555e-06, Final residual = 8.93555e-06, No Iterations 0
smoothSolver:  Solving for By, Initial residual = 4.76371e-06, Final residual = 4.76371e-06, No Iterations 0
DICPCG:  Solving for pB, Initial residual = 9.89604e-06, Final residual = 9.89604e-06, No Iterations 0
magnetic flux divergence error = 2.53888e-09
Time = 1.97

Courant Number mean: 0.0250924 max: 0.0379901
smoothSolver:  Solving for Ux, Initial residual = 1.2245e-06, Final residual = 1.2245e-06, No Iterations 0
smoothSolver:  Solving for Uy, Initial residual = 4.70045e-05, Final residual = 8.96249e-06, No Iterations 2
DICPCG:  Solving for p, Initial residual = 2.90544e-06, Final residual = 8.29876e-07, No Iterations 5
time step continuity errors : sum local = 9.16351e-10, global = -7.06962e-11, cumulative = 1.77568e-07
DICPCG:  Solving for p, Initial residual = 2.27747e-06, Final residual = 7.8107e-07, No Iterations 5
time step continuity errors : sum local = 8.62462e-10, global = -5.78891e-11, cumulative = 1.7751e-07
DICPCG:  Solving for p, Initial residual = 1.39074e-06, Final residual = 7.52096e-07, No Iterations 2
time step continuity errors : sum local = 8.30467e-10, global = -4.89999e-11, cumulative = 1.77461e-07
smoothSolver:  Solving for Bx, Initial residual = 8.9551e-06, Final residual = 8.9551e-06, No Iterations 0
smoothSolver:  Solving for By, Initial residual = 4.88692e-05, Final residual = 4.71848e-06, No Iterations 3
DICPCG:  Solving for pB, Initial residual = 9.08714e-05, Final residual = 8.92188e-06, No Iterations 7
magnetic flux divergence error = 2.28914e-09
smoothSolver:  Solving for Bx, Initial residual = 8.95535e-06, Final residual = 8.95535e-06, No Iterations 0
smoothSolver:  Solving for By, Initial residual = 4.71801e-06, Final residual = 4.71801e-06, No Iterations 0
DICPCG:  Solving for pB, Initial residual = 8.92116e-06, Final residual = 8.92116e-06, No Iterations 0
magnetic flux divergence error = 2.28914e-09
smoothSolver:  Solving for Bx, Initial residual = 8.95535e-06, Final residual = 8.95535e-06, No Iterations 0
smoothSolver:  Solving for By, Initial residual = 4.71801e-06, Final residual = 4.71801e-06, No Iterations 0
DICPCG:  Solving for pB, Initial residual = 8.92116e-06, Final residual = 8.92116e-06, No Iterations 0
magnetic flux divergence error = 2.28914e-09
Time = 1.975

Courant Number mean: 0.0250924 max: 0.0379902
smoothSolver:  Solving for Ux, Initial residual = 1.14213e-06, Final residual = 1.14213e-06, No Iterations 0
smoothSolver:  Solving for Uy, Initial residual = 3.6986e-05, Final residual = 6.62562e-06, No Iterations 2
DICPCG:  Solving for p, Initial residual = 2.81072e-06, Final residual = 7.0099e-07, No Iterations 5
time step continuity errors : sum local = 7.74034e-10, global = -3.04382e-11, cumulative = 1.77431e-07
DICPCG:  Solving for p, Initial residual = 2.06542e-06, Final residual = 9.84124e-07, No Iterations 3
time step continuity errors : sum local = 1.08667e-09, global = -1.14788e-11, cumulative = 1.77419e-07
DICPCG:  Solving for p, Initial residual = 1.4867e-06, Final residual = 8.32962e-07, No Iterations 2
time step continuity errors : sum local = 9.19759e-10, global = 4.95043e-12, cumulative = 1.77424e-07
smoothSolver:  Solving for Bx, Initial residual = 8.9782e-06, Final residual = 8.9782e-06, No Iterations 0
smoothSolver:  Solving for By, Initial residual = 4.83874e-05, Final residual = 4.67238e-06, No Iterations 3
DICPCG:  Solving for pB, Initial residual = 8.83209e-05, Final residual = 5.46621e-06, No Iterations 8
magnetic flux divergence error = 1.40272e-09
smoothSolver:  Solving for Bx, Initial residual = 8.97824e-06, Final residual = 8.97824e-06, No Iterations 0
smoothSolver:  Solving for By, Initial residual = 4.67193e-06, Final residual = 4.67193e-06, No Iterations 0
DICPCG:  Solving for pB, Initial residual = 5.46577e-06, Final residual = 5.46577e-06, No Iterations 0
magnetic flux divergence error = 1.40272e-09
smoothSolver:  Solving for Bx, Initial residual = 8.97824e-06, Final residual = 8.97824e-06, No Iterations 0
smoothSolver:  Solving for By, Initial residual = 4.67193e-06, Final residual = 4.67193e-06, No Iterations 0
DICPCG:  Solving for pB, Initial residual = 5.46577e-06, Final residual = 5.46577e-06, No Iterations 0
magnetic flux divergence error = 1.40272e-09
Time = 1.98

Courant Number mean: 0.0250924 max: 0.0379902
smoothSolver:  Solving for Ux, Initial residual = 1.12334e-06, Final residual = 1.12334e-06, No Iterations 0
smoothSolver:  Solving for Uy, Initial residual = 4.92985e-05, Final residual = 8.68196e-06, No Iterations 2
DICPCG:  Solving for p, Initial residual = 3.7367e-06, Final residual = 5.73203e-07, No Iterations 5
time step continuity errors : sum local = 6.32933e-10, global = 3.46298e-11, cumulative = 1.77459e-07
DICPCG:  Solving for p, Initial residual = 2.60625e-06, Final residual = 8.84732e-07, No Iterations 4
time step continuity errors : sum local = 9.76924e-10, global = 6.09203e-11, cumulative = 1.7752e-07
DICPCG:  Solving for p, Initial residual = 1.41118e-06, Final residual = 7.65996e-07, No Iterations 1
time step continuity errors : sum local = 8.45817e-10, global = 8.13084e-11, cumulative = 1.77601e-07
smoothSolver:  Solving for Bx, Initial residual = 9.00269e-06, Final residual = 9.00269e-06, No Iterations 0
smoothSolver:  Solving for By, Initial residual = 4.78875e-05, Final residual = 4.62427e-06, No Iterations 3
DICPCG:  Solving for pB, Initial residual = 8.71593e-05, Final residual = 9.37535e-06, No Iterations 7
magnetic flux divergence error = 2.40626e-09
smoothSolver:  Solving for Bx, Initial residual = 9.00297e-06, Final residual = 9.00297e-06, No Iterations 0
smoothSolver:  Solving for By, Initial residual = 4.62382e-06, Final residual = 4.62382e-06, No Iterations 0
DICPCG:  Solving for pB, Initial residual = 9.3746e-06, Final residual = 9.3746e-06, No Iterations 0
magnetic flux divergence error = 2.40626e-09
smoothSolver:  Solving for Bx, Initial residual = 9.00297e-06, Final residual = 9.00297e-06, No Iterations 0
smoothSolver:  Solving for By, Initial residual = 4.62382e-06, Final residual = 4.62382e-06, No Iterations 0
DICPCG:  Solving for pB, Initial residual = 9.3746e-06, Final residual = 9.3746e-06, No Iterations 0
magnetic flux divergence error = 2.40626e-09
Time = 1.985

Courant Number mean: 0.0250924 max: 0.0379902
smoothSolver:  Solving for Ux, Initial residual = 1.09431e-06, Final residual = 1.09431e-06, No Iterations 0
smoothSolver:  Solving for Uy, Initial residual = 3.22972e-05, Final residual = 5.68779e-06, No Iterations 2
DICPCG:  Solving for p, Initial residual = 2.31643e-06, Final residual = 4.77747e-07, No Iterations 3
time step continuity errors : sum local = 5.27529e-10, global = 1.12599e-10, cumulative = 1.77714e-07
DICPCG:  Solving for p, Initial residual = 1.5341e-06, Final residual = 5.9022e-07, No Iterations 2
time step continuity errors : sum local = 6.51722e-10, global = 1.37352e-10, cumulative = 1.77851e-07
DICPCG:  Solving for p, Initial residual = 9.17718e-07, Final residual = 9.17718e-07, No Iterations 0
time step continuity errors : sum local = 1.01335e-09, global = 1.5706e-10, cumulative = 1.78008e-07
smoothSolver:  Solving for Bx, Initial residual = 9.03109e-06, Final residual = 9.03109e-06, No Iterations 0
smoothSolver:  Solving for By, Initial residual = 4.73926e-05, Final residual = 9.96843e-06, No Iterations 2
DICPCG:  Solving for pB, Initial residual = 7.73492e-05, Final residual = 8.03903e-06, No Iterations 7
magnetic flux divergence error = 2.06359e-09
smoothSolver:  Solving for Bx, Initial residual = 9.03133e-06, Final residual = 9.03133e-06, No Iterations 0
smoothSolver:  Solving for By, Initial residual = 9.96759e-06, Final residual = 9.96759e-06, No Iterations 0
DICPCG:  Solving for pB, Initial residual = 8.03848e-06, Final residual = 8.03848e-06, No Iterations 0
magnetic flux divergence error = 2.06359e-09
smoothSolver:  Solving for Bx, Initial residual = 9.03133e-06, Final residual = 9.03133e-06, No Iterations 0
smoothSolver:  Solving for By, Initial residual = 9.96759e-06, Final residual = 9.96759e-06, No Iterations 0
DICPCG:  Solving for pB, Initial residual = 8.03848e-06, Final residual = 8.03848e-06, No Iterations 0
magnetic flux divergence error = 2.06359e-09
Time = 1.99

Courant Number mean: 0.0250924 max: 0.0379902
smoothSolver:  Solving for Ux, Initial residual = 1.16051e-06, Final residual = 1.16051e-06, No Iterations 0
smoothSolver:  Solving for Uy, Initial residual = 2.93659e-05, Final residual = 5.28594e-06, No Iterations 2
DICPCG:  Solving for p, Initial residual = 2.3895e-06, Final residual = 8.85381e-07, No Iterations 2
time step continuity errors : sum local = 9.77641e-10, global = 1.869e-10, cumulative = 1.78195e-07
DICPCG:  Solving for p, Initial residual = 2.19575e-06, Final residual = 9.17338e-07, No Iterations 1
time step continuity errors : sum local = 1.01293e-09, global = 2.10471e-10, cumulative = 1.78405e-07
DICPCG:  Solving for p, Initial residual = 1.43751e-06, Final residual = 7.24659e-07, No Iterations 1
time step continuity errors : sum local = 8.00171e-10, global = 2.29126e-10, cumulative = 1.78635e-07
smoothSolver:  Solving for Bx, Initial residual = 9.0626e-06, Final residual = 9.0626e-06, No Iterations 0
smoothSolver:  Solving for By, Initial residual = 4.6949e-05, Final residual = 9.87718e-06, No Iterations 2
DICPCG:  Solving for pB, Initial residual = 7.52399e-05, Final residual = 8.06437e-06, No Iterations 7
magnetic flux divergence error = 2.07038e-09
smoothSolver:  Solving for Bx, Initial residual = 9.06273e-06, Final residual = 9.06273e-06, No Iterations 0
smoothSolver:  Solving for By, Initial residual = 9.87637e-06, Final residual = 9.87637e-06, No Iterations 0
DICPCG:  Solving for pB, Initial residual = 8.06382e-06, Final residual = 8.06382e-06, No Iterations 0
magnetic flux divergence error = 2.07038e-09
smoothSolver:  Solving for Bx, Initial residual = 9.06273e-06, Final residual = 9.06273e-06, No Iterations 0
smoothSolver:  Solving for By, Initial residual = 9.87637e-06, Final residual = 9.87637e-06, No Iterations 0
DICPCG:  Solving for pB, Initial residual = 8.06382e-06, Final residual = 8.06382e-06, No Iterations 0
magnetic flux divergence error = 2.07038e-09
Time = 1.995

Courant Number mean: 0.0250924 max: 0.0379902
smoothSolver:  Solving for Ux, Initial residual = 1.19774e-06, Final residual = 1.19774e-06, No Iterations 0
smoothSolver:  Solving for Uy, Initial residual = 2.49588e-05, Final residual = 4.27876e-06, No Iterations 2
DICPCG:  Solving for p, Initial residual = 1.8652e-06, Final residual = 9.48746e-07, No Iterations 2
time step continuity errors : sum local = 1.04761e-09, global = 2.57013e-10, cumulative = 1.78892e-07
DICPCG:  Solving for p, Initial residual = 2.22296e-06, Final residual = 9.46353e-07, No Iterations 1
time step continuity errors : sum local = 1.04497e-09, global = 2.79119e-10, cumulative = 1.79171e-07
DICPCG:  Solving for p, Initial residual = 1.56464e-06, Final residual = 9.32009e-07, No Iterations 1
time step continuity errors : sum local = 1.02913e-09, global = 2.9651e-10, cumulative = 1.79467e-07
smoothSolver:  Solving for Bx, Initial residual = 9.09608e-06, Final residual = 9.09608e-06, No Iterations 0
smoothSolver:  Solving for By, Initial residual = 4.65165e-05, Final residual = 9.7869e-06, No Iterations 2
DICPCG:  Solving for pB, Initial residual = 7.50095e-05, Final residual = 8.16632e-06, No Iterations 7
magnetic flux divergence error = 2.09684e-09
smoothSolver:  Solving for Bx, Initial residual = 9.09627e-06, Final residual = 9.09627e-06, No Iterations 0
smoothSolver:  Solving for By, Initial residual = 9.7861e-06, Final residual = 9.7861e-06, No Iterations 0
DICPCG:  Solving for pB, Initial residual = 8.16577e-06, Final residual = 8.16577e-06, No Iterations 0
magnetic flux divergence error = 2.09684e-09
smoothSolver:  Solving for Bx, Initial residual = 9.09627e-06, Final residual = 9.09627e-06, No Iterations 0
smoothSolver:  Solving for By, Initial residual = 9.7861e-06, Final residual = 9.7861e-06, No Iterations 0
DICPCG:  Solving for pB, Initial residual = 8.16577e-06, Final residual = 8.16577e-06, No Iterations 0
magnetic flux divergence error = 2.09684e-09
Time = 2

Courant Number mean: 0.0250924 max: 0.0379902
smoothSolver:  Solving for Ux, Initial residual = 1.26416e-06, Final residual = 1.26416e-06, No Iterations 0
smoothSolver:  Solving for Uy, Initial residual = 1.94383e-05, Final residual = 6.94646e-06, No Iterations 1
DICPCG:  Solving for p, Initial residual = 1.96196e-06, Final residual = 9.87397e-07, No Iterations 1
time step continuity errors : sum local = 1.09029e-09, global = 3.2312e-10, cumulative = 1.7979e-07
DICPCG:  Solving for p, Initial residual = 1.48466e-06, Final residual = 9.55434e-07, No Iterations 1
time step continuity errors : sum local = 1.05499e-09, global = 3.44319e-10, cumulative = 1.80135e-07
DICPCG:  Solving for p, Initial residual = 1.08453e-06, Final residual = 9.97791e-07, No Iterations 1
time step continuity errors : sum local = 1.10176e-09, global = 3.61001e-10, cumulative = 1.80496e-07
smoothSolver:  Solving for Bx, Initial residual = 9.13202e-06, Final residual = 9.13202e-06, No Iterations 0
smoothSolver:  Solving for By, Initial residual = 4.60933e-05, Final residual = 9.69748e-06, No Iterations 2
DICPCG:  Solving for pB, Initial residual = 7.42564e-05, Final residual = 7.63515e-06, No Iterations 7
magnetic flux divergence error = 1.96072e-09
smoothSolver:  Solving for Bx, Initial residual = 9.13217e-06, Final residual = 9.13217e-06, No Iterations 0
smoothSolver:  Solving for By, Initial residual = 9.6967e-06, Final residual = 9.6967e-06, No Iterations 0
DICPCG:  Solving for pB, Initial residual = 7.63464e-06, Final residual = 7.63464e-06, No Iterations 0
magnetic flux divergence error = 1.96072e-09
smoothSolver:  Solving for Bx, Initial residual = 9.13217e-06, Final residual = 9.13217e-06, No Iterations 0
smoothSolver:  Solving for By, Initial residual = 9.6967e-06, Final residual = 9.6967e-06, No Iterations 0
DICPCG:  Solving for pB, Initial residual = 7.63464e-06, Final residual = 7.63464e-06, No Iterations 0
magnetic flux divergence error = 1.96072e-09
    functionObjects::components components(U) writing field: Ux
    functionObjects::components components(U) writing field: Uy
    functionObjects::components components(U) writing field: Uz
End

